REMARK  Name = pdbfixer_74_keep_none.pdb
REMARK  664 active torsions:
REMARK  status: ('A' for Active; 'I' for Inactive)
REMARK    1  A    between atoms: N_1  and  CA_2
REMARK    2  A    between atoms: CA_2  and  C_3
REMARK    3  A    between atoms: CA_2  and  CB_5
REMARK    4  A    between atoms: CB_5  and  CG_6
REMARK    5  A    between atoms: CZ_11  and  OH_12
REMARK    6  A    between atoms: N_13  and  CA_14
REMARK    7  A    between atoms: CA_14  and  C_15
REMARK    8  A    between atoms: CA_14  and  CB_17
REMARK    9  A    between atoms: CB_17  and  CG_18
REMARK   10  A    between atoms: CG_18  and  OD2_20
REMARK   11  A    between atoms: N_21  and  CA_22
REMARK   12  A    between atoms: CA_22  and  C_23
REMARK   13  A    between atoms: CA_22  and  CB_25
REMARK   14  A    between atoms: CB_25  and  CG_26
REMARK   15  A    between atoms: N_29  and  CA_30
REMARK   16  A    between atoms: CA_30  and  C_31
REMARK   17  A    between atoms: CA_30  and  CB_33
REMARK   18  A    between atoms: CB_33  and  CG_34
REMARK   19  A    between atoms: CG_34  and  CD_35
REMARK   20  A    between atoms: CD_35  and  NE_36
REMARK   21  A    between atoms: N_40  and  CA_41
REMARK   22  A    between atoms: CA_41  and  C_42
REMARK   23  A    between atoms: CA_41  and  CB_44
REMARK   24  A    between atoms: CB_44  and  CG_45
REMARK   25  A    between atoms: CG_45  and  CD_46
REMARK   26  A    between atoms: CD_46  and  OE2_48
REMARK   27  A    between atoms: N_49  and  CA_50
REMARK   28  A    between atoms: CA_50  and  C_51
REMARK   29  A    between atoms: CA_50  and  CB_53
REMARK   30  A    between atoms: CB_53  and  CG1_54
REMARK   31  A    between atoms: CB_53  and  CG2_55
REMARK   32  A    between atoms: CG1_54  and  CD1_56
REMARK   33  A    between atoms: N_57  and  CA_58
REMARK   34  A    between atoms: CA_58  and  C_59
REMARK   35  A    between atoms: CA_58  and  CB_61
REMARK   36  A    between atoms: CB_61  and  CG1_62
REMARK   37  A    between atoms: CB_61  and  CG2_63
REMARK   38  A    between atoms: N_64  and  CA_65
REMARK   39  A    between atoms: CA_65  and  C_66
REMARK   40  A    between atoms: CA_65  and  CB_68
REMARK   41  A    between atoms: CB_68  and  CG_69
REMARK   42  A    between atoms: CG_69  and  SD_70
REMARK   43  A    between atoms: SD_70  and  CE_71
REMARK   44  A    between atoms: N_72  and  CA_73
REMARK   45  A    between atoms: CA_73  and  C_74
REMARK   46  A    between atoms: CA_73  and  CB_76
REMARK   47  A    between atoms: CB_76  and  CG_77
REMARK   48  A    between atoms: CG_77  and  CD_78
REMARK   49  A    between atoms: CD_78  and  CE_79
REMARK   50  A    between atoms: CE_79  and  NZ_80
REMARK   51  A    between atoms: N_81  and  CA_82
REMARK   52  A    between atoms: CA_82  and  C_83
REMARK   53  A    between atoms: CA_82  and  CB_85
REMARK   54  A    between atoms: CB_85  and  CG_86
REMARK   55  A    between atoms: CZ_91  and  OH_92
REMARK   56  A    between atoms: N_93  and  CA_94
REMARK   57  A    between atoms: CA_94  and  C_95
REMARK   58  A    between atoms: CA_94  and  CB_97
REMARK   59  A    between atoms: CB_97  and  CG1_98
REMARK   60  A    between atoms: CB_97  and  CG2_99
REMARK   61  A    between atoms: CG1_98  and  CD1_100
REMARK   62  A    between atoms: N_101  and  CA_102
REMARK   63  A    between atoms: CA_102  and  C_103
REMARK   64  A    between atoms: CA_102  and  CB_105
REMARK   65  A    between atoms: CB_105  and  CG_106
REMARK   66  A    between atoms: N_111  and  CA_112
REMARK   67  A    between atoms: CA_112  and  C_113
REMARK   68  A    between atoms: CA_112  and  CB_115
REMARK   69  A    between atoms: CB_115  and  CG_116
REMARK   70  A    between atoms: CZ_121  and  OH_122
REMARK   71  A    between atoms: N_123  and  CA_124
REMARK   72  A    between atoms: CA_124  and  C_125
REMARK   73  A    between atoms: CA_124  and  CB_127
REMARK   74  A    between atoms: CB_127  and  CG_128
REMARK   75  A    between atoms: CG_128  and  CD_129
REMARK   76  A    between atoms: CD_129  and  CE_130
REMARK   77  A    between atoms: CE_130  and  NZ_131
REMARK   78  A    between atoms: N_132  and  CA_133
REMARK   79  A    between atoms: CA_133  and  C_134
REMARK   80  A    between atoms: CA_133  and  CB_136
REMARK   81  A    between atoms: CB_136  and  CG_137
REMARK   82  A    between atoms: CG_137  and  CD2_138
REMARK   83  A    between atoms: CG_137  and  CD1_139
REMARK   84  A    between atoms: N_140  and  CA_141
REMARK   85  A    between atoms: CA_141  and  C_142
REMARK   86  A    between atoms: CA_141  and  CB_144
REMARK   87  A    between atoms: CB_144  and  OG_145
REMARK   88  A    between atoms: N_146  and  CA_147
REMARK   89  A    between atoms: CA_147  and  C_148
REMARK   90  A    between atoms: CA_147  and  CB_150
REMARK   91  A    between atoms: CB_150  and  CG_151
REMARK   92  A    between atoms: CG_151  and  CD_152
REMARK   93  A    between atoms: N_155  and  CA_156
REMARK   94  A    between atoms: CA_156  and  C_157
REMARK   95  A    between atoms: CA_156  and  CB_159
REMARK   96  A    between atoms: CB_159  and  CG_160
REMARK   97  A    between atoms: CG_160  and  CD_161
REMARK   98  A    between atoms: CD_161  and  NE_162
REMARK   99  A    between atoms: N_166  and  CA_167
REMARK  100  A    between atoms: CA_167  and  C_168
REMARK  101  A    between atoms: N_170  and  CA_171
REMARK  102  A    between atoms: CA_171  and  C_172
REMARK  103  A    between atoms: CA_171  and  CB_174
REMARK  104  A    between atoms: CB_174  and  CG_175
REMARK  105  A    between atoms: CZ_180  and  OH_181
REMARK  106  A    between atoms: N_182  and  CA_183
REMARK  107  A    between atoms: CA_183  and  C_184
REMARK  108  A    between atoms: CA_183  and  CB_186
REMARK  109  A    between atoms: CB_186  and  CG_187
REMARK  110  A    between atoms: CG_187  and  CD_188
REMARK  111  A    between atoms: CD_188  and  OE2_189
REMARK  112  A    between atoms: N_191  and  CA_192
REMARK  113  A    between atoms: CA_192  and  C_193
REMARK  114  A    between atoms: CA_192  and  CB_195
REMARK  115  A    between atoms: CB_195  and  CG_196
REMARK  116  A    between atoms: N_205  and  CA_206
REMARK  117  A    between atoms: CA_206  and  C_207
REMARK  118  A    between atoms: CA_206  and  CB_209
REMARK  119  A    between atoms: CB_209  and  CG_210
REMARK  120  A    between atoms: CG_210  and  OD2_211
REMARK  121  A    between atoms: N_213  and  CA_214
REMARK  122  A    between atoms: CA_214  and  C_215
REMARK  123  A    between atoms: CA_214  and  CB_217
REMARK  124  A    between atoms: N_218  and  CA_219
REMARK  125  A    between atoms: CA_219  and  C_220
REMARK  126  A    between atoms: N_222  and  CA_223
REMARK  127  A    between atoms: CA_223  and  C_224
REMARK  128  A    between atoms: CA_223  and  CB_226
REMARK  129  A    between atoms: CB_226  and  CG_227
REMARK  130  A    between atoms: CG_227  and  OD2_228
REMARK  131  A    between atoms: N_230  and  CA_231
REMARK  132  A    between atoms: CA_231  and  C_232
REMARK  133  A    between atoms: CA_231  and  CB_234
REMARK  134  A    between atoms: CB_234  and  CG_235
REMARK  135  A    between atoms: CG_235  and  OD2_237
REMARK  136  A    between atoms: N_238  and  CA_239
REMARK  137  A    between atoms: CA_239  and  C_240
REMARK  138  A    between atoms: CA_239  and  CB_242
REMARK  139  A    between atoms: CB_242  and  OG_243
REMARK  140  A    between atoms: N_244  and  CA_245
REMARK  141  A    between atoms: CA_245  and  C_246
REMARK  142  A    between atoms: CA_245  and  CB_248
REMARK  143  A    between atoms: CB_248  and  CG_249
REMARK  144  A    between atoms: CG_249  and  CD_250
REMARK  145  A    between atoms: CD_250  and  OE2_251
REMARK  146  A    between atoms: N_253  and  CA_254
REMARK  147  A    between atoms: CA_254  and  C_255
REMARK  148  A    between atoms: CA_254  and  CB_257
REMARK  149  A    between atoms: CB_257  and  CG1_258
REMARK  150  A    between atoms: CB_257  and  CG2_259
REMARK  151  A    between atoms: N_260  and  CA_261
REMARK  152  A    between atoms: CA_261  and  C_262
REMARK  153  A    between atoms: CA_261  and  CB_264
REMARK  154  A    between atoms: CB_264  and  CG1_265
REMARK  155  A    between atoms: CB_264  and  CG2_266
REMARK  156  A    between atoms: N_267  and  CA_268
REMARK  157  A    between atoms: CA_268  and  C_269
REMARK  158  A    between atoms: CA_268  and  CB_271
REMARK  159  A    between atoms: CB_271  and  CG_272
REMARK  160  A    between atoms: N_277  and  CA_278
REMARK  161  A    between atoms: CA_278  and  C_279
REMARK  162  A    between atoms: CA_278  and  CB_281
REMARK  163  A    between atoms: CB_281  and  CG_282
REMARK  164  A    between atoms: CG_282  and  CD1_283
REMARK  165  A    between atoms: CG_282  and  CD2_284
REMARK  166  A    between atoms: N_285  and  CA_286
REMARK  167  A    between atoms: CA_286  and  C_287
REMARK  168  A    between atoms: CA_286  and  CB_289
REMARK  169  A    between atoms: CB_289  and  OG1_290
REMARK  170  A    between atoms: CB_289  and  CG2_291
REMARK  171  A    between atoms: N_292  and  CA_293
REMARK  172  A    between atoms: CA_293  and  C_294
REMARK  173  A    between atoms: CA_293  and  CB_296
REMARK  174  A    between atoms: CB_296  and  CG_297
REMARK  175  A    between atoms: CG_297  and  CD1_298
REMARK  176  A    between atoms: CG_297  and  CD2_299
REMARK  177  A    between atoms: N_300  and  CA_301
REMARK  178  A    between atoms: CA_301  and  C_302
REMARK  179  A    between atoms: CA_301  and  CB_304
REMARK  180  A    between atoms: CB_304  and  CG_305
REMARK  181  A    between atoms: CG_305  and  CD_306
REMARK  182  A    between atoms: CD_306  and  NE_307
REMARK  183  A    between atoms: N_311  and  CA_312
REMARK  184  A    between atoms: CA_312  and  C_313
REMARK  185  A    between atoms: CA_312  and  CB_315
REMARK  186  A    between atoms: CB_315  and  CG_316
REMARK  187  A    between atoms: CG_316  and  CD_317
REMARK  188  A    between atoms: N_320  and  CA_321
REMARK  189  A    between atoms: CA_321  and  C_322
REMARK  190  A    between atoms: CA_321  and  CB_324
REMARK  191  A    between atoms: N_325  and  CA_326
REMARK  192  A    between atoms: CA_326  and  C_327
REMARK  193  A    between atoms: N_329  and  CA_330
REMARK  194  A    between atoms: CA_330  and  C_331
REMARK  195  A    between atoms: CA_330  and  CB_333
REMARK  196  A    between atoms: CB_333  and  CG_334
REMARK  197  A    between atoms: CG_334  and  OD2_336
REMARK  198  A    between atoms: N_337  and  CA_338
REMARK  199  A    between atoms: CA_338  and  C_339
REMARK  200  A    between atoms: CA_338  and  CB_341
REMARK  201  A    between atoms: CB_341  and  CG_342
REMARK  202  A    between atoms: CG_342  and  OD2_343
REMARK  203  A    between atoms: N_345  and  CA_346
REMARK  204  A    between atoms: CA_346  and  C_347
REMARK  205  A    between atoms: CA_346  and  CB_349
REMARK  206  A    between atoms: CB_349  and  CG_350
REMARK  207  A    between atoms: N_356  and  CA_357
REMARK  208  A    between atoms: CA_357  and  C_358
REMARK  209  A    between atoms: CA_357  and  CB_360
REMARK  210  A    between atoms: CB_360  and  OG_361
REMARK  211  A    between atoms: N_362  and  CA_363
REMARK  212  A    between atoms: CA_363  and  C_364
REMARK  213  A    between atoms: CA_363  and  CB_366
REMARK  214  A    between atoms: CB_366  and  CG_367
REMARK  215  A    between atoms: CG_367  and  CD_368
REMARK  216  A    between atoms: CD_368  and  NE_369
REMARK  217  A    between atoms: N_373  and  CA_374
REMARK  218  A    between atoms: CA_374  and  C_375
REMARK  219  A    between atoms: CA_374  and  CB_377
REMARK  220  A    between atoms: CB_377  and  CG_378
REMARK  221  A    between atoms: CG_378  and  CD_379
REMARK  222  A    between atoms: CD_379  and  NE_380
REMARK  223  A    between atoms: N_384  and  CA_385
REMARK  224  A    between atoms: CA_385  and  C_386
REMARK  225  A    between atoms: CA_385  and  CB_388
REMARK  226  A    between atoms: CB_388  and  CG_389
REMARK  227  A    between atoms: CZ_394  and  OH_395
REMARK  228  A    between atoms: N_396  and  CA_397
REMARK  229  A    between atoms: CA_397  and  C_398
REMARK  230  A    between atoms: CA_397  and  CB_400
REMARK  231  A    between atoms: CB_400  and  CG_401
REMARK  232  A    between atoms: CG_401  and  CD_402
REMARK  233  A    between atoms: CD_402  and  NE_403
REMARK  234  A    between atoms: N_407  and  CA_408
REMARK  235  A    between atoms: CA_408  and  C_409
REMARK  236  A    between atoms: CA_408  and  CB_411
REMARK  237  A    between atoms: CB_411  and  CG_412
REMARK  238  A    between atoms: CG_412  and  CD_413
REMARK  239  A    between atoms: CD_413  and  NE_414
REMARK  240  A    between atoms: N_418  and  CA_419
REMARK  241  A    between atoms: CA_419  and  C_420
REMARK  242  A    between atoms: CA_419  and  CB_422
REMARK  243  A    between atoms: CB_422  and  CG_423
REMARK  244  A    between atoms: CG_423  and  OD2_425
REMARK  245  A    between atoms: N_426  and  CA_427
REMARK  246  A    between atoms: CA_427  and  C_428
REMARK  247  A    between atoms: CA_427  and  CB_430
REMARK  248  A    between atoms: CB_430  and  CG_431
REMARK  249  A    between atoms: N_437  and  CA_438
REMARK  250  A    between atoms: CA_438  and  C_439
REMARK  251  A    between atoms: CA_438  and  CB_441
REMARK  252  A    between atoms: N_442  and  CA_443
REMARK  253  A    between atoms: CA_443  and  C_444
REMARK  254  A    between atoms: CA_443  and  CB_446
REMARK  255  A    between atoms: CB_446  and  CG_447
REMARK  256  A    between atoms: CG_447  and  CD_448
REMARK  257  A    between atoms: CD_448  and  OE2_449
REMARK  258  A    between atoms: N_451  and  CA_452
REMARK  259  A    between atoms: CA_452  and  C_453
REMARK  260  A    between atoms: CA_452  and  CB_455
REMARK  261  A    between atoms: CB_455  and  CG_456
REMARK  262  A    between atoms: CG_456  and  SD_457
REMARK  263  A    between atoms: SD_457  and  CE_458
REMARK  264  A    between atoms: N_459  and  CA_460
REMARK  265  A    between atoms: CA_460  and  C_461
REMARK  266  A    between atoms: CA_460  and  CB_463
REMARK  267  A    between atoms: CB_463  and  OG_464
REMARK  268  A    between atoms: N_465  and  CA_466
REMARK  269  A    between atoms: CA_466  and  C_467
REMARK  270  A    between atoms: CA_466  and  CB_469
REMARK  271  A    between atoms: CB_469  and  OG_470
REMARK  272  A    between atoms: N_471  and  CA_472
REMARK  273  A    between atoms: CA_472  and  C_473
REMARK  274  A    between atoms: CA_472  and  CB_475
REMARK  275  A    between atoms: CB_475  and  CG_476
REMARK  276  A    between atoms: CG_476  and  CD_477
REMARK  277  A    between atoms: N_480  and  CA_481
REMARK  278  A    between atoms: CA_481  and  C_482
REMARK  279  A    between atoms: CA_481  and  CB_484
REMARK  280  A    between atoms: CB_484  and  CG_485
REMARK  281  A    between atoms: CG_485  and  CD2_486
REMARK  282  A    between atoms: CG_485  and  CD1_487
REMARK  283  A    between atoms: N_488  and  CA_489
REMARK  284  A    between atoms: CA_489  and  C_490
REMARK  285  A    between atoms: CA_489  and  CB_492
REMARK  286  A    between atoms: CB_492  and  CG_493
REMARK  287  A    between atoms: N_498  and  CA_499
REMARK  288  A    between atoms: CA_499  and  C_500
REMARK  289  A    between atoms: CA_499  and  CB_502
REMARK  290  A    between atoms: CB_502  and  CG_503
REMARK  291  A    between atoms: CG_503  and  CD2_504
REMARK  292  A    between atoms: CG_503  and  CD1_505
REMARK  293  A    between atoms: N_506  and  CA_507
REMARK  294  A    between atoms: CA_507  and  C_508
REMARK  295  A    between atoms: CA_507  and  CB_510
REMARK  296  A    between atoms: CB_510  and  OG1_511
REMARK  297  A    between atoms: CB_510  and  CG2_512
REMARK  298  A    between atoms: CA_514  and  C_515
REMARK  299  A    between atoms: N_520  and  CA_521
REMARK  300  A    between atoms: CA_521  and  C_522
REMARK  301  A    between atoms: CA_521  and  CB_524
REMARK  302  A    between atoms: CB_524  and  CG_525
REMARK  303  A    between atoms: N_531  and  CA_532
REMARK  304  A    between atoms: CA_532  and  C_533
REMARK  305  A    between atoms: CA_532  and  CB_535
REMARK  306  A    between atoms: CB_535  and  OG1_536
REMARK  307  A    between atoms: CB_535  and  CG2_537
REMARK  308  A    between atoms: N_538  and  CA_539
REMARK  309  A    between atoms: CA_539  and  C_540
REMARK  310  A    between atoms: CA_539  and  CB_542
REMARK  311  A    between atoms: N_543  and  CA_544
REMARK  312  A    between atoms: CA_544  and  C_545
REMARK  313  A    between atoms: CA_544  and  CB_547
REMARK  314  A    between atoms: CB_547  and  CG_548
REMARK  315  A    between atoms: CG_548  and  CD_549
REMARK  316  A    between atoms: CD_549  and  NE_550
REMARK  317  A    between atoms: N_554  and  CA_555
REMARK  318  A    between atoms: CA_555  and  C_556
REMARK  319  A    between atoms: N_558  and  CA_559
REMARK  320  A    between atoms: CA_559  and  C_560
REMARK  321  A    between atoms: CA_559  and  CB_562
REMARK  322  A    between atoms: CB_562  and  CG_563
REMARK  323  A    between atoms: CG_563  and  CD_564
REMARK  324  A    between atoms: CD_564  and  NE_565
REMARK  325  A    between atoms: N_569  and  CA_570
REMARK  326  A    between atoms: CA_570  and  C_571
REMARK  327  A    between atoms: CA_570  and  CB_573
REMARK  328  A    between atoms: CB_573  and  CG_574
REMARK  329  A    between atoms: N_580  and  CA_581
REMARK  330  A    between atoms: CA_581  and  C_582
REMARK  331  A    between atoms: CA_581  and  CB_584
REMARK  332  A    between atoms: N_585  and  CA_586
REMARK  333  A    between atoms: CA_586  and  C_587
REMARK  334  A    between atoms: CA_586  and  CB_589
REMARK  335  A    between atoms: CB_589  and  OG1_590
REMARK  336  A    between atoms: CB_589  and  CG2_591
REMARK  337  A    between atoms: N_592  and  CA_593
REMARK  338  A    between atoms: CA_593  and  C_594
REMARK  339  A    between atoms: CA_593  and  CB_596
REMARK  340  A    between atoms: CB_596  and  CG2_597
REMARK  341  A    between atoms: CB_596  and  CG1_598
REMARK  342  A    between atoms: N_599  and  CA_600
REMARK  343  A    between atoms: CA_600  and  C_601
REMARK  344  A    between atoms: CA_600  and  CB_603
REMARK  345  A    between atoms: CB_603  and  CG2_604
REMARK  346  A    between atoms: CB_603  and  CG1_605
REMARK  347  A    between atoms: N_606  and  CA_607
REMARK  348  A    between atoms: CA_607  and  C_608
REMARK  349  A    between atoms: CA_607  and  CB_610
REMARK  350  A    between atoms: CB_610  and  CG_611
REMARK  351  A    between atoms: CG_611  and  CD_612
REMARK  352  A    between atoms: CD_612  and  OE2_613
REMARK  353  A    between atoms: N_615  and  CA_616
REMARK  354  A    between atoms: CA_616  and  C_617
REMARK  355  A    between atoms: CA_616  and  CB_619
REMARK  356  A    between atoms: CB_619  and  CG_620
REMARK  357  A    between atoms: CG_620  and  CD_621
REMARK  358  A    between atoms: CD_621  and  OE2_623
REMARK  359  A    between atoms: N_624  and  CA_625
REMARK  360  A    between atoms: CA_625  and  C_626
REMARK  361  A    between atoms: CA_625  and  CB_628
REMARK  362  A    between atoms: CB_628  and  CG_629
REMARK  363  A    between atoms: CG_629  and  CD1_630
REMARK  364  A    between atoms: CG_629  and  CD2_631
REMARK  365  A    between atoms: N_632  and  CA_633
REMARK  366  A    between atoms: CA_633  and  C_634
REMARK  367  A    between atoms: CA_633  and  CB_636
REMARK  368  A    between atoms: CB_636  and  CG_637
REMARK  369  A    between atoms: N_643  and  CA_644
REMARK  370  A    between atoms: CA_644  and  C_645
REMARK  371  A    between atoms: CA_644  and  CB_647
REMARK  372  A    between atoms: CB_647  and  CG_648
REMARK  373  A    between atoms: CG_648  and  CD_649
REMARK  374  A    between atoms: CD_649  and  NE_650
REMARK  375  A    between atoms: N_654  and  CA_655
REMARK  376  A    between atoms: CA_655  and  C_656
REMARK  377  A    between atoms: CA_655  and  CB_658
REMARK  378  A    between atoms: CB_658  and  CG_659
REMARK  379  A    between atoms: CG_659  and  OD2_660
REMARK  380  A    between atoms: N_662  and  CA_663
REMARK  381  A    between atoms: CA_663  and  C_664
REMARK  382  A    between atoms: N_666  and  CA_667
REMARK  383  A    between atoms: CA_667  and  C_668
REMARK  384  A    between atoms: CA_667  and  CB_670
REMARK  385  A    between atoms: CB_670  and  CG2_671
REMARK  386  A    between atoms: CB_670  and  CG1_672
REMARK  387  A    between atoms: N_673  and  CA_674
REMARK  388  A    between atoms: CA_674  and  C_675
REMARK  389  A    between atoms: CA_674  and  CB_677
REMARK  390  A    between atoms: CB_677  and  CG_678
REMARK  391  A    between atoms: N_681  and  CA_682
REMARK  392  A    between atoms: CA_682  and  C_683
REMARK  393  A    between atoms: CA_682  and  CB_685
REMARK  394  A    between atoms: CB_685  and  CG_686
REMARK  395  A    between atoms: N_695  and  CA_696
REMARK  396  A    between atoms: CA_696  and  C_697
REMARK  397  A    between atoms: N_699  and  CA_700
REMARK  398  A    between atoms: CA_700  and  C_701
REMARK  399  A    between atoms: CA_700  and  CB_703
REMARK  400  A    between atoms: CB_703  and  CG_704
REMARK  401  A    between atoms: CG_704  and  CD_705
REMARK  402  A    between atoms: CD_705  and  NE_706
REMARK  403  A    between atoms: N_710  and  CA_711
REMARK  404  A    between atoms: CA_711  and  C_712
REMARK  405  A    between atoms: CA_711  and  CB_714
REMARK  406  A    between atoms: CB_714  and  CG1_715
REMARK  407  A    between atoms: CB_714  and  CG2_716
REMARK  408  A    between atoms: CG1_715  and  CD1_717
REMARK  409  A    between atoms: N_718  and  CA_719
REMARK  410  A    between atoms: CA_719  and  C_720
REMARK  411  A    between atoms: CA_719  and  CB_722
REMARK  412  A    between atoms: CB_722  and  CG1_723
REMARK  413  A    between atoms: CB_722  and  CG2_724
REMARK  414  A    between atoms: N_725  and  CA_726
REMARK  415  A    between atoms: CA_726  and  C_727
REMARK  416  A    between atoms: CA_726  and  CB_729
REMARK  417  A    between atoms: N_730  and  CA_731
REMARK  418  A    between atoms: CA_731  and  C_732
REMARK  419  A    between atoms: CA_731  and  CB_734
REMARK  420  A    between atoms: CB_734  and  CG_735
REMARK  421  A    between atoms: N_741  and  CA_742
REMARK  422  A    between atoms: CA_742  and  C_743
REMARK  423  A    between atoms: CA_742  and  CB_745
REMARK  424  A    between atoms: CB_745  and  CG_746
REMARK  425  A    between atoms: N_752  and  CA_753
REMARK  426  A    between atoms: CA_753  and  C_754
REMARK  427  A    between atoms: CA_753  and  CB_756
REMARK  428  A    between atoms: CB_756  and  CG_757
REMARK  429  A    between atoms: CG_757  and  CD_758
REMARK  430  A    between atoms: CD_758  and  OE2_760
REMARK  431  A    between atoms: N_761  and  CA_762
REMARK  432  A    between atoms: CA_762  and  C_763
REMARK  433  A    between atoms: CA_762  and  CB_765
REMARK  434  A    between atoms: CB_765  and  CG_766
REMARK  435  A    between atoms: N_772  and  CA_773
REMARK  436  A    between atoms: CA_773  and  C_774
REMARK  437  A    between atoms: N_776  and  CA_777
REMARK  438  A    between atoms: CA_777  and  C_778
REMARK  439  A    between atoms: N_780  and  CA_781
REMARK  440  A    between atoms: CA_781  and  C_782
REMARK  441  A    between atoms: CA_781  and  CB_784
REMARK  442  A    between atoms: CB_784  and  CG1_785
REMARK  443  A    between atoms: CB_784  and  CG2_786
REMARK  444  A    between atoms: N_787  and  CA_788
REMARK  445  A    between atoms: CA_788  and  C_789
REMARK  446  A    between atoms: CA_788  and  CB_791
REMARK  447  A    between atoms: CB_791  and  CG_792
REMARK  448  A    between atoms: CG_792  and  SD_793
REMARK  449  A    between atoms: SD_793  and  CE_794
REMARK  450  A    between atoms: N_795  and  CA_796
REMARK  451  A    between atoms: CA_796  and  C_797
REMARK  452  A    between atoms: CA_796  and  CB_799
REMARK  453  A    between atoms: CB_799  and  SG_800
REMARK  454  A    between atoms: N_801  and  CA_802
REMARK  455  A    between atoms: CA_802  and  C_803
REMARK  456  A    between atoms: CA_802  and  CB_805
REMARK  457  A    between atoms: CB_805  and  CG1_806
REMARK  458  A    between atoms: CB_805  and  CG2_807
REMARK  459  A    between atoms: N_808  and  CA_809
REMARK  460  A    between atoms: CA_809  and  C_810
REMARK  461  A    between atoms: CA_809  and  CB_812
REMARK  462  A    between atoms: CB_812  and  CG_813
REMARK  463  A    between atoms: CG_813  and  CD_814
REMARK  464  A    between atoms: CD_814  and  OE2_816
REMARK  465  A    between atoms: N_817  and  CA_818
REMARK  466  A    between atoms: CA_818  and  C_819
REMARK  467  A    between atoms: CA_818  and  CB_821
REMARK  468  A    between atoms: CB_821  and  OG_822
REMARK  469  A    between atoms: N_823  and  CA_824
REMARK  470  A    between atoms: CA_824  and  C_825
REMARK  471  A    between atoms: CA_824  and  CB_827
REMARK  472  A    between atoms: CB_827  and  CG1_828
REMARK  473  A    between atoms: CB_827  and  CG2_829
REMARK  474  A    between atoms: N_830  and  CA_831
REMARK  475  A    between atoms: CA_831  and  C_832
REMARK  476  A    between atoms: CA_831  and  CB_834
REMARK  477  A    between atoms: CB_834  and  CG_835
REMARK  478  A    between atoms: N_838  and  CA_839
REMARK  479  A    between atoms: CA_839  and  C_840
REMARK  480  A    between atoms: CA_839  and  CB_842
REMARK  481  A    between atoms: CB_842  and  CG_843
REMARK  482  A    between atoms: CG_843  and  CD_844
REMARK  483  A    between atoms: CD_844  and  NE_845
REMARK  484  A    between atoms: N_849  and  CA_850
REMARK  485  A    between atoms: CA_850  and  C_851
REMARK  486  A    between atoms: CA_850  and  CB_853
REMARK  487  A    between atoms: CB_853  and  CG_854
REMARK  488  A    between atoms: CG_854  and  CD_855
REMARK  489  A    between atoms: CD_855  and  OE2_857
REMARK  490  A    between atoms: N_858  and  CA_859
REMARK  491  A    between atoms: CA_859  and  C_860
REMARK  492  A    between atoms: CA_859  and  CB_862
REMARK  493  A    between atoms: CB_862  and  CG_863
REMARK  494  A    between atoms: CG_863  and  SD_864
REMARK  495  A    between atoms: SD_864  and  CE_865
REMARK  496  A    between atoms: N_866  and  C_867
REMARK  497  A    between atoms: C_867  and  C_868
REMARK  498  A    between atoms: C_867  and  C_870
REMARK  499  A    between atoms: C_870  and  O_871
REMARK  500  A    between atoms: C_873  and  C_874
REMARK  501  A    between atoms: N_879  and  C_880
REMARK  502  A    between atoms: C_880  and  C_881
REMARK  503  A    between atoms: C_880  and  C_883
REMARK  504  A    between atoms: C_883  and  C_884
REMARK  505  A    between atoms: C_884  and  C_885
REMARK  506  A    between atoms: C_884  and  C_886
REMARK  507  A    between atoms: N_887  and  C_888
REMARK  508  A    between atoms: C_888  and  C_889
REMARK  509  A    between atoms: C_888  and  C_891
REMARK  510  A    between atoms: C_891  and  C_892
REMARK  511  A    between atoms: C_891  and  C_893
REMARK  512  A    between atoms: N_894  and  C_895
REMARK  513  A    between atoms: C_895  and  C_896
REMARK  514  A    between atoms: C_895  and  C_898
REMARK  515  A    between atoms: C_898  and  C_899
REMARK  516  A    between atoms: C_899  and  O_900
REMARK  517  A    between atoms: N_902  and  C_903
REMARK  518  A    between atoms: C_903  and  C_904
REMARK  519  A    between atoms: C_903  and  C_906
REMARK  520  A    between atoms: C_906  and  C_907
REMARK  521  A    between atoms: N_910  and  C_911
REMARK  522  A    between atoms: C_911  and  C_912
REMARK  523  A    between atoms: C_911  and  C_914
REMARK  524  A    between atoms: C_914  and  C_915
REMARK  525  A    between atoms: C_914  and  C_916
REMARK  526  A    between atoms: C_915  and  C_917
REMARK  527  A    between atoms: N_918  and  C_919
REMARK  528  A    between atoms: C_919  and  C_920
REMARK  529  A    between atoms: C_919  and  C_922
REMARK  530  A    between atoms: N_923  and  C_924
REMARK  531  A    between atoms: C_924  and  C_925
REMARK  532  A    between atoms: C_924  and  C_927
REMARK  533  A    between atoms: C_927  and  C_928
REMARK  534  A    between atoms: C_928  and  C_929
REMARK  535  A    between atoms: C_928  and  C_930
REMARK  536  A    between atoms: N_931  and  C_932
REMARK  537  A    between atoms: C_932  and  C_933
REMARK  538  A    between atoms: C_932  and  C_935
REMARK  539  A    between atoms: C_935  and  C_936
REMARK  540  A    between atoms: N_945  and  C_946
REMARK  541  A    between atoms: C_946  and  C_947
REMARK  542  A    between atoms: C_946  and  C_949
REMARK  543  A    between atoms: C_949  and  C_950
REMARK  544  A    between atoms: C_950  and  S_951
REMARK  545  A    between atoms: S_951  and  C_952
REMARK  546  A    between atoms: N_953  and  C_954
REMARK  547  A    between atoms: C_954  and  C_955
REMARK  548  A    between atoms: C_954  and  C_957
REMARK  549  A    between atoms: C_957  and  O_958
REMARK  550  A    between atoms: C_957  and  C_959
REMARK  551  A    between atoms: N_960  and  C_961
REMARK  552  A    between atoms: C_961  and  C_962
REMARK  553  A    between atoms: C_961  and  C_964
REMARK  554  A    between atoms: C_964  and  C_965
REMARK  555  A    between atoms: C_965  and  C_966
REMARK  556  A    between atoms: C_966  and  O_967
REMARK  557  A    between atoms: N_969  and  C_970
REMARK  558  A    between atoms: C_970  and  C_971
REMARK  559  A    between atoms: C_970  and  C_973
REMARK  560  A    between atoms: C_973  and  C_974
REMARK  561  A    between atoms: C_979  and  O_980
REMARK  562  A    between atoms: N_981  and  C_982
REMARK  563  A    between atoms: C_982  and  C_983
REMARK  564  A    between atoms: C_982  and  C_985
REMARK  565  A    between atoms: C_985  and  C_986
REMARK  566  A    between atoms: C_986  and  C_987
REMARK  567  A    between atoms: C_986  and  C_988
REMARK  568  A    between atoms: N_989  and  C_990
REMARK  569  A    between atoms: C_990  and  C_991
REMARK  570  A    between atoms: C_990  and  C_993
REMARK  571  A    between atoms: C_993  and  C_994
REMARK  572  A    between atoms: N_997  and  C_998
REMARK  573  A    between atoms: C_998  and  C_999
REMARK  574  A    between atoms: C_998  and  C_1001
REMARK  575  A    between atoms: C_1001  and  C_1002
REMARK  576  A    between atoms: C_1002  and  C_1003
REMARK  577  A    between atoms: C_1003  and  N_1004
REMARK  578  A    between atoms: N_1008  and  C_1009
REMARK  579  A    between atoms: C_1009  and  C_1010
REMARK  580  A    between atoms: C_1009  and  C_1012
REMARK  581  A    between atoms: C_1012  and  C_1013
REMARK  582  A    between atoms: N_1018  and  C_1019
REMARK  583  A    between atoms: C_1019  and  C_1020
REMARK  584  A    between atoms: C_1019  and  C_1022
REMARK  585  A    between atoms: C_1022  and  C_1023
REMARK  586  A    between atoms: C_1023  and  C_1024
REMARK  587  A    between atoms: C_1023  and  C_1025
REMARK  588  A    between atoms: N_1026  and  C_1027
REMARK  589  A    between atoms: C_1027  and  C_1028
REMARK  590  A    between atoms: C_1027  and  C_1030
REMARK  591  A    between atoms: C_1030  and  C_1031
REMARK  592  A    between atoms: N_1036  and  C_1037
REMARK  593  A    between atoms: C_1037  and  C_1038
REMARK  594  A    between atoms: C_1037  and  C_1040
REMARK  595  A    between atoms: C_1040  and  O_1041
REMARK  596  A    between atoms: C_1040  and  C_1042
REMARK  597  A    between atoms: N_1043  and  C_1044
REMARK  598  A    between atoms: C_1044  and  C_1045
REMARK  599  A    between atoms: C_1044  and  C_1047
REMARK  600  A    between atoms: C_1047  and  C_1048
REMARK  601  A    between atoms: N_1057  and  C_1058
REMARK  602  A    between atoms: C_1058  and  C_1059
REMARK  603  A    between atoms: C_1058  and  C_1061
REMARK  604  A    between atoms: C_1061  and  C_1062
REMARK  605  A    between atoms: C_1061  and  C_1063
REMARK  606  A    between atoms: C_1062  and  C_1064
REMARK  607  A    between atoms: N_1065  and  C_1066
REMARK  608  A    between atoms: C_1066  and  C_1067
REMARK  609  A    between atoms: C_1066  and  C_1069
REMARK  610  A    between atoms: C_1069  and  C_1070
REMARK  611  A    between atoms: C_1070  and  C_1071
REMARK  612  A    between atoms: N_1074  and  C_1075
REMARK  613  A    between atoms: C_1075  and  C_1076
REMARK  614  A    between atoms: C_1075  and  C_1078
REMARK  615  A    between atoms: C_1078  and  C_1079
REMARK  616  A    between atoms: C_1079  and  O_1080
REMARK  617  A    between atoms: N_1082  and  C_1083
REMARK  618  A    between atoms: C_1083  and  C_1084
REMARK  619  A    between atoms: C_1083  and  C_1086
REMARK  620  A    between atoms: C_1086  and  C_1087
REMARK  621  A    between atoms: N_1090  and  C_1091
REMARK  622  A    between atoms: C_1091  and  C_1092
REMARK  623  A    between atoms: N_1094  and  C_1095
REMARK  624  A    between atoms: C_1095  and  C_1096
REMARK  625  A    between atoms: N_1098  and  C_1099
REMARK  626  A    between atoms: C_1099  and  C_1100
REMARK  627  A    between atoms: C_1099  and  C_1102
REMARK  628  A    between atoms: C_1102  and  C_1103
REMARK  629  A    between atoms: N_1112  and  C_1113
REMARK  630  A    between atoms: C_1113  and  C_1114
REMARK  631  A    between atoms: C_1113  and  C_1116
REMARK  632  A    between atoms: C_1116  and  C_1117
REMARK  633  A    between atoms: C_1117  and  O_1118
REMARK  634  A    between atoms: N_1120  and  C_1121
REMARK  635  A    between atoms: C_1121  and  C_1122
REMARK  636  A    between atoms: C_1121  and  C_1124
REMARK  637  A    between atoms: N_1125  and  C_1126
REMARK  638  A    between atoms: C_1126  and  C_1127
REMARK  639  A    between atoms: C_1126  and  C_1129
REMARK  640  A    between atoms: C_1129  and  C_1130
REMARK  641  A    between atoms: N_1136  and  C_1137
REMARK  642  A    between atoms: C_1137  and  C_1138
REMARK  643  A    between atoms: C_1137  and  C_1140
REMARK  644  A    between atoms: C_1140  and  C_1141
REMARK  645  A    between atoms: C_1140  and  C_1142
REMARK  646  A    between atoms: N_1143  and  C_1144
REMARK  647  A    between atoms: C_1144  and  C_1145
REMARK  648  A    between atoms: C_1144  and  C_1147
REMARK  649  A    between atoms: C_1147  and  C_1148
REMARK  650  A    between atoms: C_1148  and  C_1149
REMARK  651  A    between atoms: C_1149  and  O_1151
REMARK  652  A    between atoms: N_1152  and  C_1153
REMARK  653  A    between atoms: C_1153  and  C_1154
REMARK  654  A    between atoms: C_1153  and  C_1156
REMARK  655  A    between atoms: C_1156  and  C_1157
REMARK  656  A    between atoms: C_1157  and  C_1158
REMARK  657  A    between atoms: C_1157  and  C_1159
REMARK  658  A    between atoms: N_1160  and  C_1161
REMARK  659  A    between atoms: C_1161  and  C_1162
REMARK  660  A    between atoms: C_1161  and  C_1164
REMARK  661  A    between atoms: C_1164  and  C_1165
REMARK  662  A    between atoms: C_1170  and  O_1171
REMARK  663  A    between atoms: C_1174  and  O_1175
REMARK  664  A    between atoms: O_1175  and  O_1176
REMARK                            x       y       z     vdW  Elec       q    Type
REMARK                         _______ _______ _______ _____ _____    ______ ____
ROOT
ATOM      1  CA  TYR A  13       0.057  -8.125  -7.854  0.00  0.00    +0.000 C 
ENDROOT
BRANCH   1   2
ATOM      2  C   TYR A  13      -0.769  -8.355  -9.103  0.00  0.00    +0.000 C 
ATOM      3  O   TYR A  13      -1.039  -9.479  -9.451  0.00  0.00    +0.000 OA
ATOM      4  N   LYS A  14      -1.176  -7.282  -9.768  0.00  0.00    +0.000 N 
ATOM      5  H   LYS A  14      -0.932  -6.385  -9.445  0.00  0.00    +0.000 HD
BRANCH   4   6
ATOM      6  CA  LYS A  14      -1.981  -7.423 -10.971  0.00  0.00    +0.000 C 
BRANCH   6   7
ATOM      7  C   LYS A  14      -1.245  -8.219 -12.047  0.00  0.00    +0.000 C 
ATOM      8  O   LYS A  14      -1.865  -8.967 -12.785  0.00  0.00    +0.000 OA
ATOM      9  N   LEU A  15      -0.012  -7.891 -12.308  0.00  0.00    +0.000 N 
ATOM     10  H   LEU A  15       0.441  -7.184 -11.794  0.00  0.00    +0.000 HD
BRANCH   9  11
ATOM     11  CA  LEU A  15       0.684  -8.598 -13.384  0.00  0.00    +0.000 C 
BRANCH  11  12
ATOM     12  C   LEU A  15       0.888 -10.067 -13.019  0.00  0.00    +0.000 C 
ATOM     13  O   LEU A  15       0.689 -10.955 -13.856  0.00  0.00    +0.000 OA
ATOM     14  N   SER A  16       1.260 -10.348 -11.759  0.00  0.00    +0.000 N 
ATOM     15  H   SER A  16       1.366  -9.627 -11.097  0.00  0.00    +0.000 HD
BRANCH  14  16
ATOM     16  CA  SER A  16       1.506 -11.743 -11.384  0.00  0.00    +0.000 C 
BRANCH  16  17
ATOM     17  C   SER A  16       0.210 -12.539 -11.378  0.00  0.00    +0.000 C 
ATOM     18  O   SER A  16       0.204 -13.737 -11.709  0.00  0.00    +0.000 OA
ATOM     19  N   GLN A  17      -0.902 -11.886 -11.035  0.00  0.00    +0.000 N 
ATOM     20  H   GLN A  17      -0.842 -10.943 -10.759  0.00  0.00    +0.000 HD
BRANCH  19  21
ATOM     21  CA  GLN A  17      -2.211 -12.544 -11.061  0.00  0.00    +0.000 C 
BRANCH  21  22
ATOM     22  C   GLN A  17      -2.553 -13.060 -12.464  0.00  0.00    +0.000 C 
ATOM     23  O   GLN A  17      -3.270 -14.050 -12.618  0.00  0.00    +0.000 OA
ATOM     24  N   ARG A  18      -2.071 -12.377 -13.511  0.00  0.00    +0.000 N 
ATOM     25  H   ARG A  18      -1.480 -11.608 -13.339  0.00  0.00    +0.000 HD
BRANCH  24  26
ATOM     26  CA  ARG A  18      -2.380 -12.719 -14.884  0.00  0.00    +0.000 C 
BRANCH  26  27
ATOM     27  C   ARG A  18      -1.172 -13.299 -15.604  0.00  0.00    +0.000 C 
ATOM     28  O   ARG A  18      -1.248 -13.539 -16.814  0.00  0.00    +0.000 OA
ATOM     29  N   GLY A  19      -0.136 -13.684 -14.877  0.00  0.00    +0.000 N 
ATOM     30  H   GLY A  19      -0.083 -13.448 -13.923  0.00  0.00    +0.000 HD
BRANCH  29  31
ATOM     31  CA  GLY A  19       0.939 -14.470 -15.510  0.00  0.00    +0.000 C 
BRANCH  31  32
ATOM     32  C   GLY A  19       2.040 -13.641 -16.135  0.00  0.00    +0.000 C 
ATOM     33  O   GLY A  19       2.876 -14.214 -16.845  0.00  0.00    +0.000 OA
ATOM     34  N   TYR A  20       2.023 -12.315 -15.908  0.00  0.00    +0.000 N 
ATOM     35  H   TYR A  20       1.314 -11.946 -15.333  0.00  0.00    +0.000 HD
BRANCH  34  36
ATOM     36  CA  TYR A  20       3.004 -11.401 -16.473  0.00  0.00    +0.000 C 
BRANCH  36  37
ATOM     37  C   TYR A  20       4.107 -11.181 -15.464  0.00  0.00    +0.000 C 
ATOM     38  O   TYR A  20       3.905 -11.345 -14.268  0.00  0.00    +0.000 OA
ATOM     39  N   GLU A  21       5.249 -10.765 -15.950  0.00  0.00    +0.000 N 
ATOM     40  H   GLU A  21       5.306 -10.597 -16.918  0.00  0.00    +0.000 HD
BRANCH  39  41
ATOM     41  CA  GLU A  21       6.442 -10.536 -15.143  0.00  0.00    +0.000 C 
BRANCH  41  42
ATOM     42  C   GLU A  21       6.781  -9.050 -15.162  0.00  0.00    +0.000 C 
ATOM     43  O   GLU A  21       6.419  -8.312 -16.108  0.00  0.00    +0.000 OA
ATOM     44  N   TRP A  22       7.335  -8.585 -14.049  0.00  0.00    +0.000 N 
ATOM     45  H   TRP A  22       7.416  -9.169 -13.261  0.00  0.00    +0.000 HD
BRANCH  44  46
ATOM     46  CA  TRP A  22       7.836  -7.180 -13.987  0.00  0.00    +0.000 C 
BRANCH  46  47
ATOM     47  C   TRP A  22       9.051  -7.224 -13.088  0.00  0.00    +0.000 C 
ATOM     48  O   TRP A  22       8.888  -7.320 -11.867  0.00  0.00    +0.000 OA
ATOM     49  N   ASP A  23      10.238  -7.118 -13.704  0.00  0.00    +0.000 N 
ATOM     50  H   ASP A  23      10.271  -6.882 -14.659  0.00  0.00    +0.000 HD
BRANCH  49  51
ATOM     51  CA  ASP A  23      11.485  -7.349 -12.974  0.00  0.00    +0.000 C 
BRANCH  51  52
ATOM     52  C   ASP A  23      11.597  -6.377 -11.801  0.00  0.00    +0.000 C 
ATOM     53  O   ASP A  23      11.999  -6.741 -10.685  0.00  0.00    +0.000 OA
ATOM     54  N   ALA A  24      11.237  -5.140 -12.035  0.00  0.00    +0.000 N 
ATOM     55  H   ALA A  24      10.782  -4.894 -12.873  0.00  0.00    +0.000 HD
BRANCH  54  56
ATOM     56  CA  ALA A  24      11.530  -4.139 -11.017  0.00  0.00    +0.000 C 
ATOM     57  CB  ALA A  24      11.439  -2.715 -11.604  0.00  0.00    +0.000 C 
BRANCH  56  58
ATOM     58  C   ALA A  24      10.573  -4.237  -9.847  0.00  0.00    +0.000 C 
ATOM     59  O   ALA A  24      10.842  -3.657  -8.791  0.00  0.00    +0.000 OA
ATOM     60  N   GLY A  25       9.478  -4.968 -10.003  0.00  0.00    +0.000 N 
ATOM     61  H   GLY A  25       9.333  -5.431 -10.860  0.00  0.00    +0.000 HD
BRANCH  60  62
ATOM     62  CA  GLY A  25       8.486  -5.109  -8.953  0.00  0.00    +0.000 C 
BRANCH  62  63
ATOM     63  C   GLY A  25       8.595  -6.372  -8.136  0.00  0.00    +0.000 C 
ATOM     64  O   GLY A  25       7.799  -6.550  -7.198  0.00  0.00    +0.000 OA
ATOM     65  N   ASP A  26       9.526  -7.264  -8.461  0.00  0.00    +0.000 N 
ATOM     66  H   ASP A  26      10.079  -7.125  -9.263  0.00  0.00    +0.000 HD
BRANCH  65  67
ATOM     67  CA  ASP A  26       9.734  -8.459  -7.627  0.00  0.00    +0.000 C 
BRANCH  67  68
ATOM     68  C   ASP A  26      10.059  -8.102  -6.174  0.00  0.00    +0.000 C 
ATOM     69  O   ASP A  26      10.865  -7.206  -5.900  0.00  0.00    +0.000 OA
ATOM     70  N   ASP A  27       9.445  -8.829  -5.234  0.00  0.00    +0.000 N 
ATOM     71  H   ASP A  27       8.848  -9.564  -5.505  0.00  0.00    +0.000 HD
BRANCH  70  72
ATOM     72  CA  ASP A  27       9.642  -8.555  -3.821  0.00  0.00    +0.000 C 
BRANCH  72  73
ATOM     73  C   ASP A  27       9.630  -9.840  -3.010  0.00  0.00    +0.000 C 
ATOM     74  O   ASP A  27      10.259 -10.840  -3.388  0.00  0.00    +0.000 OA
ENDBRANCH  72  73
BRANCH  72  75
ATOM     75  CB  ASP A  27       8.565  -7.591  -3.325  0.00  0.00    +0.000 C 
BRANCH  75  76
ATOM     76  CG  ASP A  27       7.176  -8.085  -3.617  0.00  0.00    +0.000 C 
ATOM     77  OD1 ASP A  27       6.980  -9.097  -4.047  0.00  0.00    +0.000 OA
BRANCH  76  78
ATOM     78  OD2 ASP A  27       6.271  -7.427  -3.381  0.00  0.00    +0.000 OA
ATOM     79  H   ASP A  27       6.395  -6.572  -3.019  0.00  0.00    +0.000 HD
ENDBRANCH  76  78
ENDBRANCH  75  76
ENDBRANCH  72  75
ENDBRANCH  70  72
ENDBRANCH  67  68
BRANCH  67  80
ATOM     80  CB  ASP A  26      10.855  -9.320  -8.195  0.00  0.00    +0.000 C 
BRANCH  80  81
ATOM     81  CG  ASP A  26      10.387 -10.174  -9.347  0.00  0.00    +0.000 C 
ATOM     82  OD1 ASP A  26      11.170 -11.037  -9.806  0.00  0.00    +0.000 OA
BRANCH  81  83
ATOM     83  OD2 ASP A  26       9.226  -9.986  -9.785  0.00  0.00    +0.000 OA
ATOM     84  H   ASP A  26       8.682  -9.325  -9.403  0.00  0.00    +0.000 HD
ENDBRANCH  81  83
ENDBRANCH  80  81
ENDBRANCH  67  80
ENDBRANCH  65  67
ENDBRANCH  62  63
ENDBRANCH  60  62
ENDBRANCH  56  58
ENDBRANCH  54  56
ENDBRANCH  51  52
BRANCH  51  85
ATOM     85  CB  ASP A  23      12.684  -7.146 -13.924  0.00  0.00    +0.000 C 
BRANCH  85  86
ATOM     86  CG  ASP A  23      12.731  -8.124 -15.111  0.00  0.00    +0.000 C 
ATOM     87  OD1 ASP A  23      13.206  -7.706 -16.205  0.00  0.00    +0.000 OA
BRANCH  86  88
ATOM     88  OD2 ASP A  23      12.282  -9.288 -14.938  0.00  0.00    +0.000 OA
ATOM     89  H   ASP A  23      11.942  -9.540 -14.102  0.00  0.00    +0.000 HD
ENDBRANCH  86  88
ENDBRANCH  85  86
ENDBRANCH  51  85
ENDBRANCH  49  51
ENDBRANCH  46  47
BRANCH  46  90
ATOM     90  CB  TRP A  22       6.794  -6.227 -13.411  0.00  0.00    +0.000 C 
BRANCH  90  91
ATOM     91  CG  TRP A  22       7.304  -4.819 -13.304  0.00  0.00    +0.000 A 
ATOM     92  CD1 TRP A  22       8.201  -4.208 -14.114  0.00  0.00    +0.000 A 
ATOM     93  CD2 TRP A  22       6.977  -3.879 -12.281  0.00  0.00    +0.000 A 
ATOM     94  NE1 TRP A  22       8.447  -2.911 -13.687  0.00  0.00    +0.000 N 
ATOM     95  CE2 TRP A  22       7.640  -2.687 -12.598  0.00  0.00    +0.000 A 
ATOM     96  CE3 TRP A  22       6.094  -3.903 -11.213  0.00  0.00    +0.000 A 
ATOM     97  CZ2 TRP A  22       7.567  -1.527 -11.782  0.00  0.00    +0.000 A 
ATOM     98  CZ3 TRP A  22       6.011  -2.771 -10.401  0.00  0.00    +0.000 A 
ATOM     99  CH2 TRP A  22       6.698  -1.606 -10.702  0.00  0.00    +0.000 A 
ATOM    100  H   TRP A  22       9.080  -2.272 -14.088  0.00  0.00    +0.000 HD
ENDBRANCH  90  91
ENDBRANCH  46  90
ENDBRANCH  44  46
ENDBRANCH  41  42
BRANCH  41 101
ATOM    101  CB  GLU A  21       7.633 -11.322 -15.691  0.00  0.00    +0.000 C 
BRANCH 101 102
ATOM    102  CG  GLU A  21       7.484 -12.835 -15.487  0.00  0.00    +0.000 C 
BRANCH 102 103
ATOM    103  CD  GLU A  21       8.591 -13.636 -16.138  0.00  0.00    +0.000 C 
ATOM    104  OE1 GLU A  21       8.361 -14.839 -16.425  0.00  0.00    +0.000 OA
BRANCH 103 105
ATOM    105  OE2 GLU A  21       9.693 -13.069 -16.384  0.00  0.00    +0.000 OA
ATOM    106  H   GLU A  21       9.819 -12.170 -16.152  0.00  0.00    +0.000 HD
ENDBRANCH 103 105
ENDBRANCH 102 103
ENDBRANCH 101 102
ENDBRANCH  41 101
ENDBRANCH  39  41
ENDBRANCH  36  37
BRANCH  36 107
ATOM    107  CB  TYR A  20       2.366 -10.049 -16.814  0.00  0.00    +0.000 C 
BRANCH 107 108
ATOM    108  CG  TYR A  20       1.364 -10.206 -17.947  0.00  0.00    +0.000 A 
ATOM    109  CD2 TYR A  20       0.049 -10.573 -17.678  0.00  0.00    +0.000 A 
ATOM    110  CD1 TYR A  20       1.739  -9.989 -19.276  0.00  0.00    +0.000 A 
ATOM    111  CE2 TYR A  20      -0.849 -10.709 -18.707  0.00  0.00    +0.000 A 
ATOM    112  CE1 TYR A  20       0.805 -10.094 -20.319  0.00  0.00    +0.000 A 
ATOM    113  CZ  TYR A  20      -0.464 -10.442 -20.009  0.00  0.00    +0.000 A 
BRANCH 113 114
ATOM    114  OH  TYR A  20      -1.332 -10.612 -21.046  0.00  0.00    +0.000 OA
ATOM    115  H   TYR A  20      -1.057 -10.427 -21.922  0.00  0.00    +0.000 HD
ENDBRANCH 113 114
ENDBRANCH 107 108
ENDBRANCH  36 107
ENDBRANCH  34  36
ENDBRANCH  31  32
ENDBRANCH  29  31
ENDBRANCH  26  27
BRANCH  26 116
ATOM    116  CB  ARG A  18      -2.890 -11.474 -15.625  0.00  0.00    +0.000 C 
BRANCH 116 117
ATOM    117  CG  ARG A  18      -4.294 -11.035 -15.108  0.00  0.00    +0.000 C 
BRANCH 117 118
ATOM    118  CD  ARG A  18      -4.612  -9.607 -15.775  0.00  0.00    +0.000 C 
BRANCH 118 119
ATOM    119  NE  ARG A  18      -5.074  -9.825 -17.131  0.00  0.00    +0.000 N 
ATOM    120  CZ  ARG A  18      -5.367  -8.811 -17.969  0.00  0.00    +0.000 C 
ATOM    121  NH1 ARG A  18      -5.709  -9.067 -19.236  0.00  0.00    +0.000 NA
ATOM    122  NH2 ARG A  18      -5.364  -7.524 -17.555  0.00  0.00    +0.000 N 
ATOM    123  H   ARG A  18      -5.178 -10.750 -17.453  0.00  0.00    +0.000 HD
ATOM    124  H   ARG A  18      -5.923  -8.326 -19.848  0.00  0.00    +0.000 HD
ATOM    125  H   ARG A  18      -5.747  -9.997 -19.557  0.00  0.00    +0.000 HD
ATOM    126  H   ARG A  18      -5.672  -9.235 -20.205  0.00  0.00    +0.000 HD
ATOM    127  H   ARG A  18      -5.582  -6.803 -18.189  0.00  0.00    +0.000 HD
ATOM    128  H   ARG A  18      -5.144  -7.308 -16.620  0.00  0.00    +0.000 HD
ENDBRANCH 118 119
ENDBRANCH 117 118
ENDBRANCH 116 117
ENDBRANCH  26 116
ENDBRANCH  24  26
ENDBRANCH  21  22
BRANCH  21 129
ATOM    129  CB  GLN A  17      -3.263 -11.492 -10.594  0.00  0.00    +0.000 C 
BRANCH 129 130
ATOM    130  CG  GLN A  17      -4.695 -11.903 -10.496  0.00  0.00    +0.000 C 
BRANCH 130 131
ATOM    131  CD  GLN A  17      -5.571 -10.687 -10.072  0.00  0.00    +0.000 C 
ATOM    132  OE1 GLN A  17      -5.630  -9.663 -10.779  0.00  0.00    +0.000 OA
ATOM    133  NE2 GLN A  17      -6.231 -10.803  -8.951  0.00  0.00    +0.000 N 
ATOM    134  H   GLN A  17      -6.800 -10.064  -8.636  0.00  0.00    +0.000 HD
ATOM    135  H   GLN A  17      -6.159 -11.630  -8.421  0.00  0.00    +0.000 HD
ENDBRANCH 130 131
ENDBRANCH 129 130
ENDBRANCH  21 129
ENDBRANCH  19  21
ENDBRANCH  16  17
BRANCH  16 136
ATOM    136  CB  SER A  16       2.199 -11.814 -10.026  0.00  0.00    +0.000 C 
BRANCH 136 137
ATOM    137  OG  SER A  16       1.432 -11.147  -9.050  0.00  0.00    +0.000 OA
ATOM    138  H   SER A  16       1.331 -10.215  -9.300  0.00  0.00    +0.000 HD
ENDBRANCH 136 137
ENDBRANCH  16 136
ENDBRANCH  14  16
ENDBRANCH  11  12
BRANCH  11 139
ATOM    139  CB  LEU A  15       2.024  -7.918 -13.697  0.00  0.00    +0.000 C 
BRANCH 139 140
ATOM    140  CG  LEU A  15       1.924  -6.832 -14.778  0.00  0.00    +0.000 C 
ATOM    141  CD2 LEU A  15       0.877  -5.779 -14.434  0.00  0.00    +0.000 C 
ATOM    142  CD1 LEU A  15       3.280  -6.213 -15.066  0.00  0.00    +0.000 C 
ENDBRANCH 139 140
ENDBRANCH  11 139
ENDBRANCH   9  11
ENDBRANCH   6   7
BRANCH   6 143
ATOM    143  CB  LYS A  14      -2.402  -6.064 -11.526  0.00  0.00    +0.000 C 
BRANCH 143 144
ATOM    144  CG  LYS A  14      -3.241  -5.230 -10.576  0.00  0.00    +0.000 C 
BRANCH 144 145
ATOM    145  CD  LYS A  14      -4.371  -6.038  -9.967  0.00  0.00    +0.000 C 
BRANCH 145 146
ATOM    146  CE  LYS A  14      -5.496  -6.204 -10.957  0.00  0.00    +0.000 C 
BRANCH 146 147
ATOM    147  NZ  LYS A  14      -6.776  -6.538 -10.281  0.00  0.00    +0.000 NA
ATOM    148  H   LYS A  14      -7.033  -5.781  -9.647  0.00  0.00    +0.000 HD
ATOM    149  H   LYS A  14      -6.665  -7.402  -9.751  0.00  0.00    +0.000 HD
ATOM    150  H   LYS A  14      -7.508  -6.660 -10.981  0.00  0.00    +0.000 HD
ATOM    151  H   LYS A  14      -6.638  -7.006  -9.385  0.00  0.00    +0.000 HD
ENDBRANCH 146 147
ENDBRANCH 145 146
ENDBRANCH 144 145
ENDBRANCH 143 144
ENDBRANCH   6 143
ENDBRANCH   4   6
ENDBRANCH   1   2
BRANCH   1 154
ATOM    152  C   HIS A  12       2.105  -7.522  -9.006  0.00  0.00    +0.000 C 
ATOM    153  O   HIS A  12       2.082  -8.554  -9.654  0.00  0.00    +0.000 OA
ATOM    154  N   TYR A  13       1.176  -7.228  -8.107  0.00  0.00    +0.000 N 
ATOM    155  H   TYR A  13       1.244  -6.387  -7.600  0.00  0.00    +0.000 HD
BRANCH 152 156
ATOM    156  CA  HIS A  12       3.220  -6.488  -9.194  0.00  0.00    +0.000 C 
BRANCH 156 159
ATOM    157  C   ILE A  11       1.788  -4.861 -10.249  0.00  0.00    +0.000 C 
ATOM    158  O   ILE A  11       1.476  -5.658 -11.115  0.00  0.00    +0.000 OA
ATOM    159  N   HIS A  12       2.631  -5.166  -9.272  0.00  0.00    +0.000 N 
ATOM    160  H   HIS A  12       2.859  -4.489  -8.594  0.00  0.00    +0.000 HD
BRANCH 157 161
ATOM    161  CA  ILE A  11       1.206  -3.449 -10.243  0.00  0.00    +0.000 C 
BRANCH 161 164
ATOM    162  C   TYR A  10      -0.050  -3.617  -8.185  0.00  0.00    +0.000 C 
ATOM    163  O   TYR A  10      -0.656  -4.587  -8.596  0.00  0.00    +0.000 OA
ATOM    164  N   ILE A  11       0.908  -3.023  -8.885  0.00  0.00    +0.000 N 
ATOM    165  H   ILE A  11       1.422  -2.287  -8.481  0.00  0.00    +0.000 HD
BRANCH 162 166
ATOM    166  CA  TYR A  10      -0.286  -3.093  -6.771  0.00  0.00    +0.000 C 
BRANCH 166 169
ATOM    167  C   LYS A   9       1.668  -3.944  -5.691  0.00  0.00    +0.000 C 
ATOM    168  O   LYS A   9       1.356  -5.090  -5.970  0.00  0.00    +0.000 OA
ATOM    169  N   TYR A  10       0.944  -2.899  -6.045  0.00  0.00    +0.000 N 
ATOM    170  H   TYR A  10       1.243  -1.990  -5.814  0.00  0.00    +0.000 HD
BRANCH 167 171
ATOM    171  CA  LYS A   9       2.930  -3.639  -4.907  0.00  0.00    +0.000 C 
BRANCH 171 174
ATOM    172  C   MET A   8       4.107  -2.396  -6.596  0.00  0.00    +0.000 C 
ATOM    173  O   MET A   8       4.053  -3.346  -7.352  0.00  0.00    +0.000 OA
ATOM    174  N   LYS A   9       3.585  -2.431  -5.381  0.00  0.00    +0.000 N 
ATOM    175  H   LYS A   9       3.640  -1.639  -4.798  0.00  0.00    +0.000 HD
BRANCH 172 176
ATOM    176  CA  MET A   8       4.795  -1.097  -7.009  0.00  0.00    +0.000 C 
BRANCH 176 179
ATOM    177  C   VAL A   7       2.781   0.215  -7.240  0.00  0.00    +0.000 C 
ATOM    178  O   VAL A   7       2.287  -0.628  -7.959  0.00  0.00    +0.000 OA
ATOM    179  N   MET A   8       3.989   0.080  -6.718  0.00  0.00    +0.000 N 
ATOM    180  H   MET A   8       4.346   0.782  -6.127  0.00  0.00    +0.000 HD
BRANCH 177 181
ATOM    181  CA  VAL A   7       2.022   1.500  -6.890  0.00  0.00    +0.000 C 
BRANCH 181 184
ATOM    182  C   ILE A   6       1.488   0.992  -4.583  0.00  0.00    +0.000 C 
ATOM    183  O   ILE A   6       0.865  -0.008  -4.902  0.00  0.00    +0.000 OA
ATOM    184  N   VAL A   7       2.085   1.781  -5.463  0.00  0.00    +0.000 N 
ATOM    185  H   VAL A   7       2.580   2.571  -5.147  0.00  0.00    +0.000 HD
BRANCH 182 186
ATOM    186  CA  ILE A   6       1.629   1.391  -3.116  0.00  0.00    +0.000 C 
BRANCH 186 189
ATOM    187  C   GLU A   5       3.966   0.851  -2.968  0.00  0.00    +0.000 C 
ATOM    188  O   GLU A   5       3.738  -0.307  -3.369  0.00  0.00    +0.000 OA
ATOM    189  N   ILE A   6       3.005   1.741  -2.800  0.00  0.00    +0.000 N 
ATOM    190  H   ILE A   6       3.220   2.640  -2.461  0.00  0.00    +0.000 HD
BRANCH 187 191
ATOM    191  CA  GLU A   5       5.355   1.281  -2.603  0.00  0.00    +0.000 C 
BRANCH 191 194
ATOM    192  C   ARG A   4       5.639   2.904  -4.387  0.00  0.00    +0.000 C 
ATOM    193  O   ARG A   4       5.456   2.032  -5.271  0.00  0.00    +0.000 OA
ATOM    194  N   GLU A   5       5.602   2.635  -3.081  0.00  0.00    +0.000 N 
ATOM    195  H   GLU A   5       5.743   3.361  -2.431  0.00  0.00    +0.000 HD
BRANCH 192 196
ATOM    196  CA  ARG A   4       5.874   4.372  -4.747  0.00  0.00    +0.000 C 
BRANCH 196 199
ATOM    197  C   ASN A   3       3.803   5.199  -3.888  0.00  0.00    +0.000 C 
ATOM    198  O   ASN A   3       3.196   4.436  -4.669  0.00  0.00    +0.000 OA
ATOM    199  N   ARG A   4       5.148   5.209  -3.823  0.00  0.00    +0.000 N 
ATOM    200  H   ARG A   4       5.621   5.769  -3.166  0.00  0.00    +0.000 HD
BRANCH 197 201
ATOM    201  CA  ASN A   3       3.013   6.085  -2.913  0.00  0.00    +0.000 C 
BRANCH 201 204
ATOM    202  C   ASP A   2       3.957   5.224  -0.855  0.00  0.00    +0.000 C 
ATOM    203  O   ASP A   2       3.593   4.077  -1.163  0.00  0.00    +0.000 OA
ATOM    204  N   ASN A   3       3.742   6.291  -1.645  0.00  0.00    +0.000 N 
ATOM    205  H   ASN A   3       4.062   7.185  -1.385  0.00  0.00    +0.000 HD
BRANCH 202 206
ATOM    206  CA  ASP A   2       4.578   5.491   0.510  0.00  0.00    +0.000 C 
BRANCH 206 209
ATOM    207  C   TYR A   1       3.165   6.282   2.309  0.00  0.00    +0.000 C 
ATOM    208  O   TYR A   1       3.638   7.449   2.224  0.00  0.00    +0.000 OA
ATOM    209  N   ASP A   2       3.561   5.285   1.530  0.00  0.00    +0.000 N 
ATOM    210  H   ASP A   2       3.161   4.392   1.643  0.00  0.00    +0.000 HD
BRANCH 207 211
ATOM    211  CA  TYR A   1       2.199   5.907   3.438  0.00  0.00    +0.000 C 
BRANCH 211 212
ATOM    212  N   TYR A   1       2.466   6.750   4.628  0.00  0.00    +0.000 NA
ATOM    213  H   TYR A   1       3.427   6.605   4.939  0.00  0.00    +0.000 HD
ATOM    214  H   TYR A   1       1.824   6.493   5.378  0.00  0.00    +0.000 HD
ATOM    215  H   TYR A   1       2.331   7.732   4.386  0.00  0.00    +0.000 HD
ATOM    216  H   TYR A   1       2.821   7.384   3.912  0.00  0.00    +0.000 HD
ENDBRANCH 211 212
BRANCH 211 217
ATOM    217  CB  TYR A   1       0.789   6.070   2.920  0.00  0.00    +0.000 C 
BRANCH 217 218
ATOM    218  CG  TYR A   1      -0.204   5.525   3.915  0.00  0.00    +0.000 A 
ATOM    219  CD1 TYR A   1      -0.261   4.162   4.171  0.00  0.00    +0.000 A 
ATOM    220  CD2 TYR A   1      -1.015   6.367   4.648  0.00  0.00    +0.000 A 
ATOM    221  CE1 TYR A   1      -1.130   3.653   5.092  0.00  0.00    +0.000 A 
ATOM    222  CE2 TYR A   1      -1.933   5.845   5.560  0.00  0.00    +0.000 A 
ATOM    223  CZ  TYR A   1      -1.971   4.488   5.757  0.00  0.00    +0.000 A 
BRANCH 223 224
ATOM    224  OH  TYR A   1      -2.851   3.961   6.676  0.00  0.00    +0.000 OA
ATOM    225  H   TYR A   1      -2.883   3.035   6.816  0.00  0.00    +0.000 HD
ENDBRANCH 223 224
ENDBRANCH 217 218
ENDBRANCH 211 217
ENDBRANCH 207 211
ENDBRANCH 206 209
BRANCH 206 226
ATOM    226  CB  ASP A   2       5.725   4.523   0.823  0.00  0.00    +0.000 C 
BRANCH 226 227
ATOM    227  CG  ASP A   2       6.854   4.615  -0.199  0.00  0.00    +0.000 C 
ATOM    228  OD1 ASP A   2       6.589   4.674  -1.379  0.00  0.00    +0.000 OA
BRANCH 227 229
ATOM    229  OD2 ASP A   2       8.007   4.671   0.279  0.00  0.00    +0.000 OA
ATOM    230  H   ASP A   2       8.133   4.618   1.206  0.00  0.00    +0.000 HD
ENDBRANCH 227 229
ENDBRANCH 226 227
ENDBRANCH 206 226
ENDBRANCH 202 206
ENDBRANCH 201 204
BRANCH 201 231
ATOM    231  CB  ASN A   3       2.761   7.414  -3.618  0.00  0.00    +0.000 C 
BRANCH 231 232
ATOM    232  CG  ASN A   3       1.742   8.254  -2.908  0.00  0.00    +0.000 C 
ATOM    233  OD1 ASN A   3       0.824   7.739  -2.277  0.00  0.00    +0.000 OA
ATOM    234  ND2 ASN A   3       1.876   9.556  -3.049  0.00  0.00    +0.000 N 
ATOM    235  H   ASN A   3       2.631   9.920  -3.566  0.00  0.00    +0.000 HD
ATOM    236  H   ASN A   3       1.221  10.166  -2.638  0.00  0.00    +0.000 HD
ENDBRANCH 231 232
ENDBRANCH 201 231
ENDBRANCH 197 201
ENDBRANCH 196 199
BRANCH 196 237
ATOM    237  CB  ARG A   4       7.392   4.715  -4.626  0.00  0.00    +0.000 C 
BRANCH 237 238
ATOM    238  CG  ARG A   4       8.208   3.744  -5.482  0.00  0.00    +0.000 C 
BRANCH 238 239
ATOM    239  CD  ARG A   4       9.708   4.244  -5.400  0.00  0.00    +0.000 C 
BRANCH 239 240
ATOM    240  NE  ARG A   4      10.535   3.466  -6.276  0.00  0.00    +0.000 N 
ATOM    241  CZ  ARG A   4      11.854   3.656  -6.369  0.00  0.00    +0.000 C 
ATOM    242  NH2 ARG A   4      12.439   4.585  -5.622  0.00  0.00    +0.000 N 
ATOM    243  NH1 ARG A   4      12.538   2.854  -7.164  0.00  0.00    +0.000 NA
ATOM    244  H   ARG A   4      10.116   2.767  -6.828  0.00  0.00    +0.000 HD
ATOM    245  H   ARG A   4      13.411   4.729  -5.687  0.00  0.00    +0.000 HD
ATOM    246  H   ARG A   4      11.901   5.130  -5.003  0.00  0.00    +0.000 HD
ATOM    247  H   ARG A   4      12.068   2.177  -7.703  0.00  0.00    +0.000 HD
ATOM    248  H   ARG A   4      13.518   2.933  -7.218  0.00  0.00    +0.000 HD
ATOM    249  H   ARG A   4      13.269   3.226  -7.708  0.00  0.00    +0.000 HD
ENDBRANCH 239 240
ENDBRANCH 238 239
ENDBRANCH 237 238
ENDBRANCH 196 237
ENDBRANCH 192 196
ENDBRANCH 191 194
BRANCH 191 250
ATOM    250  CB  GLU A   5       5.490   1.229  -1.091  0.00  0.00    +0.000 C 
BRANCH 250 251
ATOM    251  CG  GLU A   5       5.255  -0.208  -0.549  0.00  0.00    +0.000 C 
BRANCH 251 252
ATOM    252  CD  GLU A   5       5.161  -0.231   0.973  0.00  0.00    +0.000 C 
ATOM    253  OE1 GLU A   5       5.406  -1.305   1.521  0.00  0.00    +0.000 OA
BRANCH 252 254
ATOM    254  OE2 GLU A   5       4.856   0.808   1.620  0.00  0.00    +0.000 OA
ATOM    255  H   GLU A   5       4.676   1.607   1.165  0.00  0.00    +0.000 HD
ENDBRANCH 252 254
ENDBRANCH 251 252
ENDBRANCH 250 251
ENDBRANCH 191 250
ENDBRANCH 187 191
ENDBRANCH 186 189
BRANCH 186 256
ATOM    256  CB  ILE A   6       0.667   2.544  -2.773  0.00  0.00    +0.000 C 
ATOM    257  CG2 ILE A   6      -0.692   2.335  -3.414  0.00  0.00    +0.000 C 
BRANCH 256 258
ATOM    258  CG1 ILE A   6       0.505   2.654  -1.260  0.00  0.00    +0.000 C 
ATOM    259  CD1 ILE A   6      -0.062   3.984  -0.819  0.00  0.00    +0.000 C 
ENDBRANCH 256 258
ENDBRANCH 186 256
ENDBRANCH 182 186
ENDBRANCH 181 184
BRANCH 181 260
ATOM    260  CB  VAL A   7       2.579   2.670  -7.725  0.00  0.00    +0.000 C 
ATOM    261  CG1 VAL A   7       2.765   2.266  -9.178  0.00  0.00    +0.000 C 
ATOM    262  CG2 VAL A   7       1.651   3.868  -7.637  0.00  0.00    +0.000 C 
ENDBRANCH 181 260
ENDBRANCH 177 181
ENDBRANCH 176 179
BRANCH 176 263
ATOM    263  CB  MET A   8       6.161  -0.987  -6.332  0.00  0.00    +0.000 C 
BRANCH 263 264
ATOM    264  CG  MET A   8       7.051  -2.199  -6.501  0.00  0.00    +0.000 C 
BRANCH 264 265
ATOM    265  SD  MET A   8       8.551  -2.000  -5.529  0.00  0.00    +0.000 S 
ATOM    266  CE  MET A   8       7.955  -2.313  -3.876  0.00  0.00    +0.000 C 
ENDBRANCH 264 265
ENDBRANCH 263 264
ENDBRANCH 176 263
ENDBRANCH 172 176
ENDBRANCH 171 174
BRANCH 171 267
ATOM    267  CB  LYS A   9       2.608  -3.528  -3.420  0.00  0.00    +0.000 C 
BRANCH 267 268
ATOM    268  CG  LYS A   9       3.822  -3.701  -2.525  0.00  0.00    +0.000 C 
BRANCH 268 269
ATOM    269  CD  LYS A   9       3.463  -3.542  -1.062  0.00  0.00    +0.000 C 
BRANCH 269 270
ATOM    270  CE  LYS A   9       4.619  -3.931  -0.166  0.00  0.00    +0.000 C 
BRANCH 270 271
ATOM    271  NZ  LYS A   9       5.245  -5.179  -0.660  0.00  0.00    +0.000 NA
ATOM    272  H   LYS A   9       4.555  -5.930  -0.657  0.00  0.00    +0.000 HD
ATOM    273  H   LYS A   9       6.025  -5.431  -0.053  0.00  0.00    +0.000 HD
ATOM    274  H   LYS A   9       5.586  -5.035  -1.610  0.00  0.00    +0.000 HD
ATOM    275  H   LYS A   9       4.909  -4.392  -0.105  0.00  0.00    +0.000 HD
ENDBRANCH 270 271
ENDBRANCH 269 270
ENDBRANCH 268 269
ENDBRANCH 267 268
ENDBRANCH 171 267
ENDBRANCH 167 171
ENDBRANCH 166 169
BRANCH 166 276
ATOM    276  CB  TYR A  10      -1.111  -1.812  -6.779  0.00  0.00    +0.000 C 
BRANCH 276 277
ATOM    277  CG  TYR A  10      -2.309  -1.957  -7.628  0.00  0.00    +0.000 A 
ATOM    278  CD1 TYR A  10      -2.217  -1.696  -8.964  0.00  0.00    +0.000 A 
ATOM    279  CD2 TYR A  10      -3.517  -2.384  -7.106  0.00  0.00    +0.000 A 
ATOM    280  CE1 TYR A  10      -3.285  -1.836  -9.775  0.00  0.00    +0.000 A 
ATOM    281  CE2 TYR A  10      -4.611  -2.526  -7.924  0.00  0.00    +0.000 A 
ATOM    282  CZ  TYR A  10      -4.453  -2.249  -9.257  0.00  0.00    +0.000 A 
BRANCH 282 283
ATOM    283  OH  TYR A  10      -5.449  -2.348 -10.139  0.00  0.00    +0.000 OA
ATOM    284  H   TYR A  10      -5.297  -2.149 -11.042  0.00  0.00    +0.000 HD
ENDBRANCH 282 283
ENDBRANCH 276 277
ENDBRANCH 166 276
ENDBRANCH 162 166
ENDBRANCH 161 164
BRANCH 161 285
ATOM    285  CB  ILE A  11       2.156  -2.466 -10.954  0.00  0.00    +0.000 C 
ATOM    286  CG2 ILE A  11       2.676  -3.059 -12.250  0.00  0.00    +0.000 C 
BRANCH 285 287
ATOM    287  CG1 ILE A  11       1.441  -1.144 -11.233  0.00  0.00    +0.000 C 
ATOM    288  CD1 ILE A  11       0.178  -1.273 -12.053  0.00  0.00    +0.000 C 
ENDBRANCH 285 287
ENDBRANCH 161 285
ENDBRANCH 157 161
ENDBRANCH 156 159
BRANCH 156 289
ATOM    289  CB  HIS A  12       4.217  -6.583  -8.048  0.00  0.00    +0.000 C 
BRANCH 289 290
ATOM    290  CG  HIS A  12       4.592  -7.988  -7.699  0.00  0.00    +0.000 A 
ATOM    291  ND1 HIS A  12       5.575  -8.680  -8.368  0.00  0.00    +0.000 N 
ATOM    292  CD2 HIS A  12       4.104  -8.837  -6.766  0.00  0.00    +0.000 A 
ATOM    293  CE1 HIS A  12       5.687  -9.889  -7.853  0.00  0.00    +0.000 A 
ATOM    294  NE2 HIS A  12       4.803 -10.011  -6.882  0.00  0.00    +0.000 N 
ATOM    295  H   HIS A  12       6.111  -8.328  -9.115  0.00  0.00    +0.000 HD
ATOM    296  H   HIS A  12       4.667 -10.815  -6.330  0.00  0.00    +0.000 HD
ENDBRANCH 289 290
ENDBRANCH 156 289
ENDBRANCH 152 156
ENDBRANCH   1 154
BRANCH   1 297
ATOM    297  CB  TYR A  13      -0.842  -7.569  -6.752  0.00  0.00    +0.000 C 
BRANCH 297 298
ATOM    298  CG  TYR A  13      -2.156  -8.300  -6.579  0.00  0.00    +0.000 A 
ATOM    299  CD2 TYR A  13      -2.203  -9.534  -5.959  0.00  0.00    +0.000 A 
ATOM    300  CD1 TYR A  13      -3.347  -7.745  -7.018  0.00  0.00    +0.000 A 
ATOM    301  CE2 TYR A  13      -3.396 -10.197  -5.786  0.00  0.00    +0.000 A 
ATOM    302  CE1 TYR A  13      -4.547  -8.406  -6.850  0.00  0.00    +0.000 A 
ATOM    303  CZ  TYR A  13      -4.560  -9.632  -6.228  0.00  0.00    +0.000 A 
BRANCH 303 304
ATOM    304  OH  TYR A  13      -5.745 -10.299  -6.051  0.00  0.00    +0.000 OA
ATOM    305  H   TYR A  13      -6.547  -9.918  -6.351  0.00  0.00    +0.000 HD
ENDBRANCH 303 304
ENDBRANCH 297 298
ENDBRANCH   1 297
TORSDOF 125
REMARK  Name = pdbfixer_74_keep_none.pdb
REMARK  664 active torsions:
REMARK  status: ('A' for Active; 'I' for Inactive)
REMARK    1  A    between atoms: N_1  and  CA_2
REMARK    2  A    between atoms: CA_2  and  C_3
REMARK    3  A    between atoms: CA_2  and  CB_5
REMARK    4  A    between atoms: CB_5  and  CG_6
REMARK    5  A    between atoms: CZ_11  and  OH_12
REMARK    6  A    between atoms: N_13  and  CA_14
REMARK    7  A    between atoms: CA_14  and  C_15
REMARK    8  A    between atoms: CA_14  and  CB_17
REMARK    9  A    between atoms: CB_17  and  CG_18
REMARK   10  A    between atoms: CG_18  and  OD2_20
REMARK   11  A    between atoms: N_21  and  CA_22
REMARK   12  A    between atoms: CA_22  and  C_23
REMARK   13  A    between atoms: CA_22  and  CB_25
REMARK   14  A    between atoms: CB_25  and  CG_26
REMARK   15  A    between atoms: N_29  and  CA_30
REMARK   16  A    between atoms: CA_30  and  C_31
REMARK   17  A    between atoms: CA_30  and  CB_33
REMARK   18  A    between atoms: CB_33  and  CG_34
REMARK   19  A    between atoms: CG_34  and  CD_35
REMARK   20  A    between atoms: CD_35  and  NE_36
REMARK   21  A    between atoms: N_40  and  CA_41
REMARK   22  A    between atoms: CA_41  and  C_42
REMARK   23  A    between atoms: CA_41  and  CB_44
REMARK   24  A    between atoms: CB_44  and  CG_45
REMARK   25  A    between atoms: CG_45  and  CD_46
REMARK   26  A    between atoms: CD_46  and  OE2_48
REMARK   27  A    between atoms: N_49  and  CA_50
REMARK   28  A    between atoms: CA_50  and  C_51
REMARK   29  A    between atoms: CA_50  and  CB_53
REMARK   30  A    between atoms: CB_53  and  CG1_54
REMARK   31  A    between atoms: CB_53  and  CG2_55
REMARK   32  A    between atoms: CG1_54  and  CD1_56
REMARK   33  A    between atoms: N_57  and  CA_58
REMARK   34  A    between atoms: CA_58  and  C_59
REMARK   35  A    between atoms: CA_58  and  CB_61
REMARK   36  A    between atoms: CB_61  and  CG1_62
REMARK   37  A    between atoms: CB_61  and  CG2_63
REMARK   38  A    between atoms: N_64  and  CA_65
REMARK   39  A    between atoms: CA_65  and  C_66
REMARK   40  A    between atoms: CA_65  and  CB_68
REMARK   41  A    between atoms: CB_68  and  CG_69
REMARK   42  A    between atoms: CG_69  and  SD_70
REMARK   43  A    between atoms: SD_70  and  CE_71
REMARK   44  A    between atoms: N_72  and  CA_73
REMARK   45  A    between atoms: CA_73  and  C_74
REMARK   46  A    between atoms: CA_73  and  CB_76
REMARK   47  A    between atoms: CB_76  and  CG_77
REMARK   48  A    between atoms: CG_77  and  CD_78
REMARK   49  A    between atoms: CD_78  and  CE_79
REMARK   50  A    between atoms: CE_79  and  NZ_80
REMARK   51  A    between atoms: N_81  and  CA_82
REMARK   52  A    between atoms: CA_82  and  C_83
REMARK   53  A    between atoms: CA_82  and  CB_85
REMARK   54  A    between atoms: CB_85  and  CG_86
REMARK   55  A    between atoms: CZ_91  and  OH_92
REMARK   56  A    between atoms: N_93  and  CA_94
REMARK   57  A    between atoms: CA_94  and  C_95
REMARK   58  A    between atoms: CA_94  and  CB_97
REMARK   59  A    between atoms: CB_97  and  CG1_98
REMARK   60  A    between atoms: CB_97  and  CG2_99
REMARK   61  A    between atoms: CG1_98  and  CD1_100
REMARK   62  A    between atoms: N_101  and  CA_102
REMARK   63  A    between atoms: CA_102  and  C_103
REMARK   64  A    between atoms: CA_102  and  CB_105
REMARK   65  A    between atoms: CB_105  and  CG_106
REMARK   66  A    between atoms: N_111  and  CA_112
REMARK   67  A    between atoms: CA_112  and  C_113
REMARK   68  A    between atoms: CA_112  and  CB_115
REMARK   69  A    between atoms: CB_115  and  CG_116
REMARK   70  A    between atoms: CZ_121  and  OH_122
REMARK   71  A    between atoms: N_123  and  CA_124
REMARK   72  A    between atoms: CA_124  and  C_125
REMARK   73  A    between atoms: CA_124  and  CB_127
REMARK   74  A    between atoms: CB_127  and  CG_128
REMARK   75  A    between atoms: CG_128  and  CD_129
REMARK   76  A    between atoms: CD_129  and  CE_130
REMARK   77  A    between atoms: CE_130  and  NZ_131
REMARK   78  A    between atoms: N_132  and  CA_133
REMARK   79  A    between atoms: CA_133  and  C_134
REMARK   80  A    between atoms: CA_133  and  CB_136
REMARK   81  A    between atoms: CB_136  and  CG_137
REMARK   82  A    between atoms: CG_137  and  CD2_138
REMARK   83  A    between atoms: CG_137  and  CD1_139
REMARK   84  A    between atoms: N_140  and  CA_141
REMARK   85  A    between atoms: CA_141  and  C_142
REMARK   86  A    between atoms: CA_141  and  CB_144
REMARK   87  A    between atoms: CB_144  and  OG_145
REMARK   88  A    between atoms: N_146  and  CA_147
REMARK   89  A    between atoms: CA_147  and  C_148
REMARK   90  A    between atoms: CA_147  and  CB_150
REMARK   91  A    between atoms: CB_150  and  CG_151
REMARK   92  A    between atoms: CG_151  and  CD_152
REMARK   93  A    between atoms: N_155  and  CA_156
REMARK   94  A    between atoms: CA_156  and  C_157
REMARK   95  A    between atoms: CA_156  and  CB_159
REMARK   96  A    between atoms: CB_159  and  CG_160
REMARK   97  A    between atoms: CG_160  and  CD_161
REMARK   98  A    between atoms: CD_161  and  NE_162
REMARK   99  A    between atoms: N_166  and  CA_167
REMARK  100  A    between atoms: CA_167  and  C_168
REMARK  101  A    between atoms: N_170  and  CA_171
REMARK  102  A    between atoms: CA_171  and  C_172
REMARK  103  A    between atoms: CA_171  and  CB_174
REMARK  104  A    between atoms: CB_174  and  CG_175
REMARK  105  A    between atoms: CZ_180  and  OH_181
REMARK  106  A    between atoms: N_182  and  CA_183
REMARK  107  A    between atoms: CA_183  and  C_184
REMARK  108  A    between atoms: CA_183  and  CB_186
REMARK  109  A    between atoms: CB_186  and  CG_187
REMARK  110  A    between atoms: CG_187  and  CD_188
REMARK  111  A    between atoms: CD_188  and  OE2_189
REMARK  112  A    between atoms: N_191  and  CA_192
REMARK  113  A    between atoms: CA_192  and  C_193
REMARK  114  A    between atoms: CA_192  and  CB_195
REMARK  115  A    between atoms: CB_195  and  CG_196
REMARK  116  A    between atoms: N_205  and  CA_206
REMARK  117  A    between atoms: CA_206  and  C_207
REMARK  118  A    between atoms: CA_206  and  CB_209
REMARK  119  A    between atoms: CB_209  and  CG_210
REMARK  120  A    between atoms: CG_210  and  OD2_211
REMARK  121  A    between atoms: N_213  and  CA_214
REMARK  122  A    between atoms: CA_214  and  C_215
REMARK  123  A    between atoms: CA_214  and  CB_217
REMARK  124  A    between atoms: N_218  and  CA_219
REMARK  125  A    between atoms: CA_219  and  C_220
REMARK  126  A    between atoms: N_222  and  CA_223
REMARK  127  A    between atoms: CA_223  and  C_224
REMARK  128  A    between atoms: CA_223  and  CB_226
REMARK  129  A    between atoms: CB_226  and  CG_227
REMARK  130  A    between atoms: CG_227  and  OD2_228
REMARK  131  A    between atoms: N_230  and  CA_231
REMARK  132  A    between atoms: CA_231  and  C_232
REMARK  133  A    between atoms: CA_231  and  CB_234
REMARK  134  A    between atoms: CB_234  and  CG_235
REMARK  135  A    between atoms: CG_235  and  OD2_237
REMARK  136  A    between atoms: N_238  and  CA_239
REMARK  137  A    between atoms: CA_239  and  C_240
REMARK  138  A    between atoms: CA_239  and  CB_242
REMARK  139  A    between atoms: CB_242  and  OG_243
REMARK  140  A    between atoms: N_244  and  CA_245
REMARK  141  A    between atoms: CA_245  and  C_246
REMARK  142  A    between atoms: CA_245  and  CB_248
REMARK  143  A    between atoms: CB_248  and  CG_249
REMARK  144  A    between atoms: CG_249  and  CD_250
REMARK  145  A    between atoms: CD_250  and  OE2_251
REMARK  146  A    between atoms: N_253  and  CA_254
REMARK  147  A    between atoms: CA_254  and  C_255
REMARK  148  A    between atoms: CA_254  and  CB_257
REMARK  149  A    between atoms: CB_257  and  CG1_258
REMARK  150  A    between atoms: CB_257  and  CG2_259
REMARK  151  A    between atoms: N_260  and  CA_261
REMARK  152  A    between atoms: CA_261  and  C_262
REMARK  153  A    between atoms: CA_261  and  CB_264
REMARK  154  A    between atoms: CB_264  and  CG1_265
REMARK  155  A    between atoms: CB_264  and  CG2_266
REMARK  156  A    between atoms: N_267  and  CA_268
REMARK  157  A    between atoms: CA_268  and  C_269
REMARK  158  A    between atoms: CA_268  and  CB_271
REMARK  159  A    between atoms: CB_271  and  CG_272
REMARK  160  A    between atoms: N_277  and  CA_278
REMARK  161  A    between atoms: CA_278  and  C_279
REMARK  162  A    between atoms: CA_278  and  CB_281
REMARK  163  A    between atoms: CB_281  and  CG_282
REMARK  164  A    between atoms: CG_282  and  CD1_283
REMARK  165  A    between atoms: CG_282  and  CD2_284
REMARK  166  A    between atoms: N_285  and  CA_286
REMARK  167  A    between atoms: CA_286  and  C_287
REMARK  168  A    between atoms: CA_286  and  CB_289
REMARK  169  A    between atoms: CB_289  and  OG1_290
REMARK  170  A    between atoms: CB_289  and  CG2_291
REMARK  171  A    between atoms: N_292  and  CA_293
REMARK  172  A    between atoms: CA_293  and  C_294
REMARK  173  A    between atoms: CA_293  and  CB_296
REMARK  174  A    between atoms: CB_296  and  CG_297
REMARK  175  A    between atoms: CG_297  and  CD1_298
REMARK  176  A    between atoms: CG_297  and  CD2_299
REMARK  177  A    between atoms: N_300  and  CA_301
REMARK  178  A    between atoms: CA_301  and  C_302
REMARK  179  A    between atoms: CA_301  and  CB_304
REMARK  180  A    between atoms: CB_304  and  CG_305
REMARK  181  A    between atoms: CG_305  and  CD_306
REMARK  182  A    between atoms: CD_306  and  NE_307
REMARK  183  A    between atoms: N_311  and  CA_312
REMARK  184  A    between atoms: CA_312  and  C_313
REMARK  185  A    between atoms: CA_312  and  CB_315
REMARK  186  A    between atoms: CB_315  and  CG_316
REMARK  187  A    between atoms: CG_316  and  CD_317
REMARK  188  A    between atoms: N_320  and  CA_321
REMARK  189  A    between atoms: CA_321  and  C_322
REMARK  190  A    between atoms: CA_321  and  CB_324
REMARK  191  A    between atoms: N_325  and  CA_326
REMARK  192  A    between atoms: CA_326  and  C_327
REMARK  193  A    between atoms: N_329  and  CA_330
REMARK  194  A    between atoms: CA_330  and  C_331
REMARK  195  A    between atoms: CA_330  and  CB_333
REMARK  196  A    between atoms: CB_333  and  CG_334
REMARK  197  A    between atoms: CG_334  and  OD2_336
REMARK  198  A    between atoms: N_337  and  CA_338
REMARK  199  A    between atoms: CA_338  and  C_339
REMARK  200  A    between atoms: CA_338  and  CB_341
REMARK  201  A    between atoms: CB_341  and  CG_342
REMARK  202  A    between atoms: CG_342  and  OD2_343
REMARK  203  A    between atoms: N_345  and  CA_346
REMARK  204  A    between atoms: CA_346  and  C_347
REMARK  205  A    between atoms: CA_346  and  CB_349
REMARK  206  A    between atoms: CB_349  and  CG_350
REMARK  207  A    between atoms: N_356  and  CA_357
REMARK  208  A    between atoms: CA_357  and  C_358
REMARK  209  A    between atoms: CA_357  and  CB_360
REMARK  210  A    between atoms: CB_360  and  OG_361
REMARK  211  A    between atoms: N_362  and  CA_363
REMARK  212  A    between atoms: CA_363  and  C_364
REMARK  213  A    between atoms: CA_363  and  CB_366
REMARK  214  A    between atoms: CB_366  and  CG_367
REMARK  215  A    between atoms: CG_367  and  CD_368
REMARK  216  A    between atoms: CD_368  and  NE_369
REMARK  217  A    between atoms: N_373  and  CA_374
REMARK  218  A    between atoms: CA_374  and  C_375
REMARK  219  A    between atoms: CA_374  and  CB_377
REMARK  220  A    between atoms: CB_377  and  CG_378
REMARK  221  A    between atoms: CG_378  and  CD_379
REMARK  222  A    between atoms: CD_379  and  NE_380
REMARK  223  A    between atoms: N_384  and  CA_385
REMARK  224  A    between atoms: CA_385  and  C_386
REMARK  225  A    between atoms: CA_385  and  CB_388
REMARK  226  A    between atoms: CB_388  and  CG_389
REMARK  227  A    between atoms: CZ_394  and  OH_395
REMARK  228  A    between atoms: N_396  and  CA_397
REMARK  229  A    between atoms: CA_397  and  C_398
REMARK  230  A    between atoms: CA_397  and  CB_400
REMARK  231  A    between atoms: CB_400  and  CG_401
REMARK  232  A    between atoms: CG_401  and  CD_402
REMARK  233  A    between atoms: CD_402  and  NE_403
REMARK  234  A    between atoms: N_407  and  CA_408
REMARK  235  A    between atoms: CA_408  and  C_409
REMARK  236  A    between atoms: CA_408  and  CB_411
REMARK  237  A    between atoms: CB_411  and  CG_412
REMARK  238  A    between atoms: CG_412  and  CD_413
REMARK  239  A    between atoms: CD_413  and  NE_414
REMARK  240  A    between atoms: N_418  and  CA_419
REMARK  241  A    between atoms: CA_419  and  C_420
REMARK  242  A    between atoms: CA_419  and  CB_422
REMARK  243  A    between atoms: CB_422  and  CG_423
REMARK  244  A    between atoms: CG_423  and  OD2_425
REMARK  245  A    between atoms: N_426  and  CA_427
REMARK  246  A    between atoms: CA_427  and  C_428
REMARK  247  A    between atoms: CA_427  and  CB_430
REMARK  248  A    between atoms: CB_430  and  CG_431
REMARK  249  A    between atoms: N_437  and  CA_438
REMARK  250  A    between atoms: CA_438  and  C_439
REMARK  251  A    between atoms: CA_438  and  CB_441
REMARK  252  A    between atoms: N_442  and  CA_443
REMARK  253  A    between atoms: CA_443  and  C_444
REMARK  254  A    between atoms: CA_443  and  CB_446
REMARK  255  A    between atoms: CB_446  and  CG_447
REMARK  256  A    between atoms: CG_447  and  CD_448
REMARK  257  A    between atoms: CD_448  and  OE2_449
REMARK  258  A    between atoms: N_451  and  CA_452
REMARK  259  A    between atoms: CA_452  and  C_453
REMARK  260  A    between atoms: CA_452  and  CB_455
REMARK  261  A    between atoms: CB_455  and  CG_456
REMARK  262  A    between atoms: CG_456  and  SD_457
REMARK  263  A    between atoms: SD_457  and  CE_458
REMARK  264  A    between atoms: N_459  and  CA_460
REMARK  265  A    between atoms: CA_460  and  C_461
REMARK  266  A    between atoms: CA_460  and  CB_463
REMARK  267  A    between atoms: CB_463  and  OG_464
REMARK  268  A    between atoms: N_465  and  CA_466
REMARK  269  A    between atoms: CA_466  and  C_467
REMARK  270  A    between atoms: CA_466  and  CB_469
REMARK  271  A    between atoms: CB_469  and  OG_470
REMARK  272  A    between atoms: N_471  and  CA_472
REMARK  273  A    between atoms: CA_472  and  C_473
REMARK  274  A    between atoms: CA_472  and  CB_475
REMARK  275  A    between atoms: CB_475  and  CG_476
REMARK  276  A    between atoms: CG_476  and  CD_477
REMARK  277  A    between atoms: N_480  and  CA_481
REMARK  278  A    between atoms: CA_481  and  C_482
REMARK  279  A    between atoms: CA_481  and  CB_484
REMARK  280  A    between atoms: CB_484  and  CG_485
REMARK  281  A    between atoms: CG_485  and  CD2_486
REMARK  282  A    between atoms: CG_485  and  CD1_487
REMARK  283  A    between atoms: N_488  and  CA_489
REMARK  284  A    between atoms: CA_489  and  C_490
REMARK  285  A    between atoms: CA_489  and  CB_492
REMARK  286  A    between atoms: CB_492  and  CG_493
REMARK  287  A    between atoms: N_498  and  CA_499
REMARK  288  A    between atoms: CA_499  and  C_500
REMARK  289  A    between atoms: CA_499  and  CB_502
REMARK  290  A    between atoms: CB_502  and  CG_503
REMARK  291  A    between atoms: CG_503  and  CD2_504
REMARK  292  A    between atoms: CG_503  and  CD1_505
REMARK  293  A    between atoms: N_506  and  CA_507
REMARK  294  A    between atoms: CA_507  and  C_508
REMARK  295  A    between atoms: CA_507  and  CB_510
REMARK  296  A    between atoms: CB_510  and  OG1_511
REMARK  297  A    between atoms: CB_510  and  CG2_512
REMARK  298  A    between atoms: CA_514  and  C_515
REMARK  299  A    between atoms: N_520  and  CA_521
REMARK  300  A    between atoms: CA_521  and  C_522
REMARK  301  A    between atoms: CA_521  and  CB_524
REMARK  302  A    between atoms: CB_524  and  CG_525
REMARK  303  A    between atoms: N_531  and  CA_532
REMARK  304  A    between atoms: CA_532  and  C_533
REMARK  305  A    between atoms: CA_532  and  CB_535
REMARK  306  A    between atoms: CB_535  and  OG1_536
REMARK  307  A    between atoms: CB_535  and  CG2_537
REMARK  308  A    between atoms: N_538  and  CA_539
REMARK  309  A    between atoms: CA_539  and  C_540
REMARK  310  A    between atoms: CA_539  and  CB_542
REMARK  311  A    between atoms: N_543  and  CA_544
REMARK  312  A    between atoms: CA_544  and  C_545
REMARK  313  A    between atoms: CA_544  and  CB_547
REMARK  314  A    between atoms: CB_547  and  CG_548
REMARK  315  A    between atoms: CG_548  and  CD_549
REMARK  316  A    between atoms: CD_549  and  NE_550
REMARK  317  A    between atoms: N_554  and  CA_555
REMARK  318  A    between atoms: CA_555  and  C_556
REMARK  319  A    between atoms: N_558  and  CA_559
REMARK  320  A    between atoms: CA_559  and  C_560
REMARK  321  A    between atoms: CA_559  and  CB_562
REMARK  322  A    between atoms: CB_562  and  CG_563
REMARK  323  A    between atoms: CG_563  and  CD_564
REMARK  324  A    between atoms: CD_564  and  NE_565
REMARK  325  A    between atoms: N_569  and  CA_570
REMARK  326  A    between atoms: CA_570  and  C_571
REMARK  327  A    between atoms: CA_570  and  CB_573
REMARK  328  A    between atoms: CB_573  and  CG_574
REMARK  329  A    between atoms: N_580  and  CA_581
REMARK  330  A    between atoms: CA_581  and  C_582
REMARK  331  A    between atoms: CA_581  and  CB_584
REMARK  332  A    between atoms: N_585  and  CA_586
REMARK  333  A    between atoms: CA_586  and  C_587
REMARK  334  A    between atoms: CA_586  and  CB_589
REMARK  335  A    between atoms: CB_589  and  OG1_590
REMARK  336  A    between atoms: CB_589  and  CG2_591
REMARK  337  A    between atoms: N_592  and  CA_593
REMARK  338  A    between atoms: CA_593  and  C_594
REMARK  339  A    between atoms: CA_593  and  CB_596
REMARK  340  A    between atoms: CB_596  and  CG2_597
REMARK  341  A    between atoms: CB_596  and  CG1_598
REMARK  342  A    between atoms: N_599  and  CA_600
REMARK  343  A    between atoms: CA_600  and  C_601
REMARK  344  A    between atoms: CA_600  and  CB_603
REMARK  345  A    between atoms: CB_603  and  CG2_604
REMARK  346  A    between atoms: CB_603  and  CG1_605
REMARK  347  A    between atoms: N_606  and  CA_607
REMARK  348  A    between atoms: CA_607  and  C_608
REMARK  349  A    between atoms: CA_607  and  CB_610
REMARK  350  A    between atoms: CB_610  and  CG_611
REMARK  351  A    between atoms: CG_611  and  CD_612
REMARK  352  A    between atoms: CD_612  and  OE2_613
REMARK  353  A    between atoms: N_615  and  CA_616
REMARK  354  A    between atoms: CA_616  and  C_617
REMARK  355  A    between atoms: CA_616  and  CB_619
REMARK  356  A    between atoms: CB_619  and  CG_620
REMARK  357  A    between atoms: CG_620  and  CD_621
REMARK  358  A    between atoms: CD_621  and  OE2_623
REMARK  359  A    between atoms: N_624  and  CA_625
REMARK  360  A    between atoms: CA_625  and  C_626
REMARK  361  A    between atoms: CA_625  and  CB_628
REMARK  362  A    between atoms: CB_628  and  CG_629
REMARK  363  A    between atoms: CG_629  and  CD1_630
REMARK  364  A    between atoms: CG_629  and  CD2_631
REMARK  365  A    between atoms: N_632  and  CA_633
REMARK  366  A    between atoms: CA_633  and  C_634
REMARK  367  A    between atoms: CA_633  and  CB_636
REMARK  368  A    between atoms: CB_636  and  CG_637
REMARK  369  A    between atoms: N_643  and  CA_644
REMARK  370  A    between atoms: CA_644  and  C_645
REMARK  371  A    between atoms: CA_644  and  CB_647
REMARK  372  A    between atoms: CB_647  and  CG_648
REMARK  373  A    between atoms: CG_648  and  CD_649
REMARK  374  A    between atoms: CD_649  and  NE_650
REMARK  375  A    between atoms: N_654  and  CA_655
REMARK  376  A    between atoms: CA_655  and  C_656
REMARK  377  A    between atoms: CA_655  and  CB_658
REMARK  378  A    between atoms: CB_658  and  CG_659
REMARK  379  A    between atoms: CG_659  and  OD2_660
REMARK  380  A    between atoms: N_662  and  CA_663
REMARK  381  A    between atoms: CA_663  and  C_664
REMARK  382  A    between atoms: N_666  and  CA_667
REMARK  383  A    between atoms: CA_667  and  C_668
REMARK  384  A    between atoms: CA_667  and  CB_670
REMARK  385  A    between atoms: CB_670  and  CG2_671
REMARK  386  A    between atoms: CB_670  and  CG1_672
REMARK  387  A    between atoms: N_673  and  CA_674
REMARK  388  A    between atoms: CA_674  and  C_675
REMARK  389  A    between atoms: CA_674  and  CB_677
REMARK  390  A    between atoms: CB_677  and  CG_678
REMARK  391  A    between atoms: N_681  and  CA_682
REMARK  392  A    between atoms: CA_682  and  C_683
REMARK  393  A    between atoms: CA_682  and  CB_685
REMARK  394  A    between atoms: CB_685  and  CG_686
REMARK  395  A    between atoms: N_695  and  CA_696
REMARK  396  A    between atoms: CA_696  and  C_697
REMARK  397  A    between atoms: N_699  and  CA_700
REMARK  398  A    between atoms: CA_700  and  C_701
REMARK  399  A    between atoms: CA_700  and  CB_703
REMARK  400  A    between atoms: CB_703  and  CG_704
REMARK  401  A    between atoms: CG_704  and  CD_705
REMARK  402  A    between atoms: CD_705  and  NE_706
REMARK  403  A    between atoms: N_710  and  CA_711
REMARK  404  A    between atoms: CA_711  and  C_712
REMARK  405  A    between atoms: CA_711  and  CB_714
REMARK  406  A    between atoms: CB_714  and  CG1_715
REMARK  407  A    between atoms: CB_714  and  CG2_716
REMARK  408  A    between atoms: CG1_715  and  CD1_717
REMARK  409  A    between atoms: N_718  and  CA_719
REMARK  410  A    between atoms: CA_719  and  C_720
REMARK  411  A    between atoms: CA_719  and  CB_722
REMARK  412  A    between atoms: CB_722  and  CG1_723
REMARK  413  A    between atoms: CB_722  and  CG2_724
REMARK  414  A    between atoms: N_725  and  CA_726
REMARK  415  A    between atoms: CA_726  and  C_727
REMARK  416  A    between atoms: CA_726  and  CB_729
REMARK  417  A    between atoms: N_730  and  CA_731
REMARK  418  A    between atoms: CA_731  and  C_732
REMARK  419  A    between atoms: CA_731  and  CB_734
REMARK  420  A    between atoms: CB_734  and  CG_735
REMARK  421  A    between atoms: N_741  and  CA_742
REMARK  422  A    between atoms: CA_742  and  C_743
REMARK  423  A    between atoms: CA_742  and  CB_745
REMARK  424  A    between atoms: CB_745  and  CG_746
REMARK  425  A    between atoms: N_752  and  CA_753
REMARK  426  A    between atoms: CA_753  and  C_754
REMARK  427  A    between atoms: CA_753  and  CB_756
REMARK  428  A    between atoms: CB_756  and  CG_757
REMARK  429  A    between atoms: CG_757  and  CD_758
REMARK  430  A    between atoms: CD_758  and  OE2_760
REMARK  431  A    between atoms: N_761  and  CA_762
REMARK  432  A    between atoms: CA_762  and  C_763
REMARK  433  A    between atoms: CA_762  and  CB_765
REMARK  434  A    between atoms: CB_765  and  CG_766
REMARK  435  A    between atoms: N_772  and  CA_773
REMARK  436  A    between atoms: CA_773  and  C_774
REMARK  437  A    between atoms: N_776  and  CA_777
REMARK  438  A    between atoms: CA_777  and  C_778
REMARK  439  A    between atoms: N_780  and  CA_781
REMARK  440  A    between atoms: CA_781  and  C_782
REMARK  441  A    between atoms: CA_781  and  CB_784
REMARK  442  A    between atoms: CB_784  and  CG1_785
REMARK  443  A    between atoms: CB_784  and  CG2_786
REMARK  444  A    between atoms: N_787  and  CA_788
REMARK  445  A    between atoms: CA_788  and  C_789
REMARK  446  A    between atoms: CA_788  and  CB_791
REMARK  447  A    between atoms: CB_791  and  CG_792
REMARK  448  A    between atoms: CG_792  and  SD_793
REMARK  449  A    between atoms: SD_793  and  CE_794
REMARK  450  A    between atoms: N_795  and  CA_796
REMARK  451  A    between atoms: CA_796  and  C_797
REMARK  452  A    between atoms: CA_796  and  CB_799
REMARK  453  A    between atoms: CB_799  and  SG_800
REMARK  454  A    between atoms: N_801  and  CA_802
REMARK  455  A    between atoms: CA_802  and  C_803
REMARK  456  A    between atoms: CA_802  and  CB_805
REMARK  457  A    between atoms: CB_805  and  CG1_806
REMARK  458  A    between atoms: CB_805  and  CG2_807
REMARK  459  A    between atoms: N_808  and  CA_809
REMARK  460  A    between atoms: CA_809  and  C_810
REMARK  461  A    between atoms: CA_809  and  CB_812
REMARK  462  A    between atoms: CB_812  and  CG_813
REMARK  463  A    between atoms: CG_813  and  CD_814
REMARK  464  A    between atoms: CD_814  and  OE2_816
REMARK  465  A    between atoms: N_817  and  CA_818
REMARK  466  A    between atoms: CA_818  and  C_819
REMARK  467  A    between atoms: CA_818  and  CB_821
REMARK  468  A    between atoms: CB_821  and  OG_822
REMARK  469  A    between atoms: N_823  and  CA_824
REMARK  470  A    between atoms: CA_824  and  C_825
REMARK  471  A    between atoms: CA_824  and  CB_827
REMARK  472  A    between atoms: CB_827  and  CG1_828
REMARK  473  A    between atoms: CB_827  and  CG2_829
REMARK  474  A    between atoms: N_830  and  CA_831
REMARK  475  A    between atoms: CA_831  and  C_832
REMARK  476  A    between atoms: CA_831  and  CB_834
REMARK  477  A    between atoms: CB_834  and  CG_835
REMARK  478  A    between atoms: N_838  and  CA_839
REMARK  479  A    between atoms: CA_839  and  C_840
REMARK  480  A    between atoms: CA_839  and  CB_842
REMARK  481  A    between atoms: CB_842  and  CG_843
REMARK  482  A    between atoms: CG_843  and  CD_844
REMARK  483  A    between atoms: CD_844  and  NE_845
REMARK  484  A    between atoms: N_849  and  CA_850
REMARK  485  A    between atoms: CA_850  and  C_851
REMARK  486  A    between atoms: CA_850  and  CB_853
REMARK  487  A    between atoms: CB_853  and  CG_854
REMARK  488  A    between atoms: CG_854  and  CD_855
REMARK  489  A    between atoms: CD_855  and  OE2_857
REMARK  490  A    between atoms: N_858  and  CA_859
REMARK  491  A    between atoms: CA_859  and  C_860
REMARK  492  A    between atoms: CA_859  and  CB_862
REMARK  493  A    between atoms: CB_862  and  CG_863
REMARK  494  A    between atoms: CG_863  and  SD_864
REMARK  495  A    between atoms: SD_864  and  CE_865
REMARK  496  A    between atoms: N_866  and  C_867
REMARK  497  A    between atoms: C_867  and  C_868
REMARK  498  A    between atoms: C_867  and  C_870
REMARK  499  A    between atoms: C_870  and  O_871
REMARK  500  A    between atoms: C_873  and  C_874
REMARK  501  A    between atoms: N_879  and  C_880
REMARK  502  A    between atoms: C_880  and  C_881
REMARK  503  A    between atoms: C_880  and  C_883
REMARK  504  A    between atoms: C_883  and  C_884
REMARK  505  A    between atoms: C_884  and  C_885
REMARK  506  A    between atoms: C_884  and  C_886
REMARK  507  A    between atoms: N_887  and  C_888
REMARK  508  A    between atoms: C_888  and  C_889
REMARK  509  A    between atoms: C_888  and  C_891
REMARK  510  A    between atoms: C_891  and  C_892
REMARK  511  A    between atoms: C_891  and  C_893
REMARK  512  A    between atoms: N_894  and  C_895
REMARK  513  A    between atoms: C_895  and  C_896
REMARK  514  A    between atoms: C_895  and  C_898
REMARK  515  A    between atoms: C_898  and  C_899
REMARK  516  A    between atoms: C_899  and  O_900
REMARK  517  A    between atoms: N_902  and  C_903
REMARK  518  A    between atoms: C_903  and  C_904
REMARK  519  A    between atoms: C_903  and  C_906
REMARK  520  A    between atoms: C_906  and  C_907
REMARK  521  A    between atoms: N_910  and  C_911
REMARK  522  A    between atoms: C_911  and  C_912
REMARK  523  A    between atoms: C_911  and  C_914
REMARK  524  A    between atoms: C_914  and  C_915
REMARK  525  A    between atoms: C_914  and  C_916
REMARK  526  A    between atoms: C_915  and  C_917
REMARK  527  A    between atoms: N_918  and  C_919
REMARK  528  A    between atoms: C_919  and  C_920
REMARK  529  A    between atoms: C_919  and  C_922
REMARK  530  A    between atoms: N_923  and  C_924
REMARK  531  A    between atoms: C_924  and  C_925
REMARK  532  A    between atoms: C_924  and  C_927
REMARK  533  A    between atoms: C_927  and  C_928
REMARK  534  A    between atoms: C_928  and  C_929
REMARK  535  A    between atoms: C_928  and  C_930
REMARK  536  A    between atoms: N_931  and  C_932
REMARK  537  A    between atoms: C_932  and  C_933
REMARK  538  A    between atoms: C_932  and  C_935
REMARK  539  A    between atoms: C_935  and  C_936
REMARK  540  A    between atoms: N_945  and  C_946
REMARK  541  A    between atoms: C_946  and  C_947
REMARK  542  A    between atoms: C_946  and  C_949
REMARK  543  A    between atoms: C_949  and  C_950
REMARK  544  A    between atoms: C_950  and  S_951
REMARK  545  A    between atoms: S_951  and  C_952
REMARK  546  A    between atoms: N_953  and  C_954
REMARK  547  A    between atoms: C_954  and  C_955
REMARK  548  A    between atoms: C_954  and  C_957
REMARK  549  A    between atoms: C_957  and  O_958
REMARK  550  A    between atoms: C_957  and  C_959
REMARK  551  A    between atoms: N_960  and  C_961
REMARK  552  A    between atoms: C_961  and  C_962
REMARK  553  A    between atoms: C_961  and  C_964
REMARK  554  A    between atoms: C_964  and  C_965
REMARK  555  A    between atoms: C_965  and  C_966
REMARK  556  A    between atoms: C_966  and  O_967
REMARK  557  A    between atoms: N_969  and  C_970
REMARK  558  A    between atoms: C_970  and  C_971
REMARK  559  A    between atoms: C_970  and  C_973
REMARK  560  A    between atoms: C_973  and  C_974
REMARK  561  A    between atoms: C_979  and  O_980
REMARK  562  A    between atoms: N_981  and  C_982
REMARK  563  A    between atoms: C_982  and  C_983
REMARK  564  A    between atoms: C_982  and  C_985
REMARK  565  A    between atoms: C_985  and  C_986
REMARK  566  A    between atoms: C_986  and  C_987
REMARK  567  A    between atoms: C_986  and  C_988
REMARK  568  A    between atoms: N_989  and  C_990
REMARK  569  A    between atoms: C_990  and  C_991
REMARK  570  A    between atoms: C_990  and  C_993
REMARK  571  A    between atoms: C_993  and  C_994
REMARK  572  A    between atoms: N_997  and  C_998
REMARK  573  A    between atoms: C_998  and  C_999
REMARK  574  A    between atoms: C_998  and  C_1001
REMARK  575  A    between atoms: C_1001  and  C_1002
REMARK  576  A    between atoms: C_1002  and  C_1003
REMARK  577  A    between atoms: C_1003  and  N_1004
REMARK  578  A    between atoms: N_1008  and  C_1009
REMARK  579  A    between atoms: C_1009  and  C_1010
REMARK  580  A    between atoms: C_1009  and  C_1012
REMARK  581  A    between atoms: C_1012  and  C_1013
REMARK  582  A    between atoms: N_1018  and  C_1019
REMARK  583  A    between atoms: C_1019  and  C_1020
REMARK  584  A    between atoms: C_1019  and  C_1022
REMARK  585  A    between atoms: C_1022  and  C_1023
REMARK  586  A    between atoms: C_1023  and  C_1024
REMARK  587  A    between atoms: C_1023  and  C_1025
REMARK  588  A    between atoms: N_1026  and  C_1027
REMARK  589  A    between atoms: C_1027  and  C_1028
REMARK  590  A    between atoms: C_1027  and  C_1030
REMARK  591  A    between atoms: C_1030  and  C_1031
REMARK  592  A    between atoms: N_1036  and  C_1037
REMARK  593  A    between atoms: C_1037  and  C_1038
REMARK  594  A    between atoms: C_1037  and  C_1040
REMARK  595  A    between atoms: C_1040  and  O_1041
REMARK  596  A    between atoms: C_1040  and  C_1042
REMARK  597  A    between atoms: N_1043  and  C_1044
REMARK  598  A    between atoms: C_1044  and  C_1045
REMARK  599  A    between atoms: C_1044  and  C_1047
REMARK  600  A    between atoms: C_1047  and  C_1048
REMARK  601  A    between atoms: N_1057  and  C_1058
REMARK  602  A    between atoms: C_1058  and  C_1059
REMARK  603  A    between atoms: C_1058  and  C_1061
REMARK  604  A    between atoms: C_1061  and  C_1062
REMARK  605  A    between atoms: C_1061  and  C_1063
REMARK  606  A    between atoms: C_1062  and  C_1064
REMARK  607  A    between atoms: N_1065  and  C_1066
REMARK  608  A    between atoms: C_1066  and  C_1067
REMARK  609  A    between atoms: C_1066  and  C_1069
REMARK  610  A    between atoms: C_1069  and  C_1070
REMARK  611  A    between atoms: C_1070  and  C_1071
REMARK  612  A    between atoms: N_1074  and  C_1075
REMARK  613  A    between atoms: C_1075  and  C_1076
REMARK  614  A    between atoms: C_1075  and  C_1078
REMARK  615  A    between atoms: C_1078  and  C_1079
REMARK  616  A    between atoms: C_1079  and  O_1080
REMARK  617  A    between atoms: N_1082  and  C_1083
REMARK  618  A    between atoms: C_1083  and  C_1084
REMARK  619  A    between atoms: C_1083  and  C_1086
REMARK  620  A    between atoms: C_1086  and  C_1087
REMARK  621  A    between atoms: N_1090  and  C_1091
REMARK  622  A    between atoms: C_1091  and  C_1092
REMARK  623  A    between atoms: N_1094  and  C_1095
REMARK  624  A    between atoms: C_1095  and  C_1096
REMARK  625  A    between atoms: N_1098  and  C_1099
REMARK  626  A    between atoms: C_1099  and  C_1100
REMARK  627  A    between atoms: C_1099  and  C_1102
REMARK  628  A    between atoms: C_1102  and  C_1103
REMARK  629  A    between atoms: N_1112  and  C_1113
REMARK  630  A    between atoms: C_1113  and  C_1114
REMARK  631  A    between atoms: C_1113  and  C_1116
REMARK  632  A    between atoms: C_1116  and  C_1117
REMARK  633  A    between atoms: C_1117  and  O_1118
REMARK  634  A    between atoms: N_1120  and  C_1121
REMARK  635  A    between atoms: C_1121  and  C_1122
REMARK  636  A    between atoms: C_1121  and  C_1124
REMARK  637  A    between atoms: N_1125  and  C_1126
REMARK  638  A    between atoms: C_1126  and  C_1127
REMARK  639  A    between atoms: C_1126  and  C_1129
REMARK  640  A    between atoms: C_1129  and  C_1130
REMARK  641  A    between atoms: N_1136  and  C_1137
REMARK  642  A    between atoms: C_1137  and  C_1138
REMARK  643  A    between atoms: C_1137  and  C_1140
REMARK  644  A    between atoms: C_1140  and  C_1141
REMARK  645  A    between atoms: C_1140  and  C_1142
REMARK  646  A    between atoms: N_1143  and  C_1144
REMARK  647  A    between atoms: C_1144  and  C_1145
REMARK  648  A    between atoms: C_1144  and  C_1147
REMARK  649  A    between atoms: C_1147  and  C_1148
REMARK  650  A    between atoms: C_1148  and  C_1149
REMARK  651  A    between atoms: C_1149  and  O_1151
REMARK  652  A    between atoms: N_1152  and  C_1153
REMARK  653  A    between atoms: C_1153  and  C_1154
REMARK  654  A    between atoms: C_1153  and  C_1156
REMARK  655  A    between atoms: C_1156  and  C_1157
REMARK  656  A    between atoms: C_1157  and  C_1158
REMARK  657  A    between atoms: C_1157  and  C_1159
REMARK  658  A    between atoms: N_1160  and  C_1161
REMARK  659  A    between atoms: C_1161  and  C_1162
REMARK  660  A    between atoms: C_1161  and  C_1164
REMARK  661  A    between atoms: C_1164  and  C_1165
REMARK  662  A    between atoms: C_1170  and  O_1171
REMARK  663  A    between atoms: C_1174  and  O_1175
REMARK  664  A    between atoms: O_1175  and  O_1176
REMARK                            x       y       z     vdW  Elec       q    Type
REMARK                         _______ _______ _______ _____ _____    ______ ____
ROOT
ATOM      1  C   TRP B  55     -12.412   5.815  -5.108  0.00  0.00    +0.000 C 
ATOM      2  O   TRP B  55     -11.477   5.124  -5.516  0.00  0.00    +0.000 OA
ATOM      3  N   GLY B  56     -13.647   5.681  -5.596  0.00  0.00    +0.000 N 
ATOM      4  H   GLY B  56     -14.389   6.230  -5.253  0.00  0.00    +0.000 HD
ENDROOT
BRANCH   1   5
ATOM      5  CA  TRP B  55     -12.178   6.842  -4.001  0.00  0.00    +0.000 C 
BRANCH   5   8
ATOM      6  C   ASN B  54     -12.806   8.778  -5.291  0.00  0.00    +0.000 C 
ATOM      7  O   ASN B  54     -11.987   8.496  -6.137  0.00  0.00    +0.000 OA
ATOM      8  N   TRP B  55     -13.001   8.038  -4.201  0.00  0.00    +0.000 N 
ATOM      9  H   TRP B  55     -13.686   8.290  -3.541  0.00  0.00    +0.000 HD
BRANCH   6  10
ATOM     10  CA  ASN B  54     -13.569  10.081  -5.372  0.00  0.00    +0.000 C 
BRANCH  10  13
ATOM     11  C   VAL B  53     -13.016  12.147  -6.597  0.00  0.00    +0.000 C 
ATOM     12  O   VAL B  53     -13.636  12.884  -5.792  0.00  0.00    +0.000 OA
ATOM     13  N   ASN B  54     -13.084  10.802  -6.531  0.00  0.00    +0.000 N 
ATOM     14  H   ASN B  54     -12.788  10.282  -7.313  0.00  0.00    +0.000 HD
BRANCH  11  15
ATOM     15  CA  VAL B  53     -12.086  12.741  -7.658  0.00  0.00    +0.000 C 
BRANCH  15  18
ATOM     16  C   GLY B  52     -13.476  13.912  -9.266  0.00  0.00    +0.000 C 
ATOM     17  O   GLY B  52     -13.625  12.896  -9.954  0.00  0.00    +0.000 OA
ATOM     18  N   VAL B  53     -12.738  13.934  -8.194  0.00  0.00    +0.000 N 
ATOM     19  H   VAL B  53     -12.614  14.790  -7.725  0.00  0.00    +0.000 HD
BRANCH  16  20
ATOM     20  CA  GLY B  52     -14.075  15.249  -9.723  0.00  0.00    +0.000 C 
BRANCH  20  23
ATOM     21  C   ASP B  51     -15.797  15.309 -11.425  0.00  0.00    +0.000 C 
ATOM     22  O   ASP B  51     -16.693  15.469 -10.584  0.00  0.00    +0.000 OA
ATOM     23  N   GLY B  52     -14.524  15.110 -11.092  0.00  0.00    +0.000 N 
ATOM     24  H   GLY B  52     -13.875  14.864 -11.790  0.00  0.00    +0.000 HD
BRANCH  21  25
ATOM     25  CA  ASP B  51     -16.155  15.291 -12.898  0.00  0.00    +0.000 C 
BRANCH  25  28
ATOM     26  C   ARG B  50     -14.264  15.703 -14.344  0.00  0.00    +0.000 C 
ATOM     27  O   ARG B  50     -14.427  16.916 -14.229  0.00  0.00    +0.000 OA
ATOM     28  N   ASP B  51     -15.050  14.831 -13.729  0.00  0.00    +0.000 N 
ATOM     29  H   ASP B  51     -14.886  13.866 -13.834  0.00  0.00    +0.000 HD
BRANCH  26  30
ATOM     30  CA  ARG B  50     -13.186  15.176 -15.282  0.00  0.00    +0.000 C 
BRANCH  30  33
ATOM     31  C   PHE B  49     -12.076  13.809 -13.567  0.00  0.00    +0.000 C 
ATOM     32  O   PHE B  49     -12.114  14.733 -12.755  0.00  0.00    +0.000 OA
ATOM     33  N   ARG B  50     -12.596  13.901 -14.796  0.00  0.00    +0.000 N 
ATOM     34  H   ARG B  50     -12.588  13.114 -15.387  0.00  0.00    +0.000 HD
BRANCH  31  35
ATOM     35  CA  PHE B  49     -11.393  12.520 -13.172  0.00  0.00    +0.000 C 
BRANCH  35  38
ATOM     36  C   LEU B  48     -12.031  10.521 -14.383  0.00  0.00    +0.000 C 
ATOM     37  O   LEU B  48     -12.990  10.336 -13.595  0.00  0.00    +0.000 OA
ATOM     38  N   PHE B  49     -11.234  11.581 -14.290  0.00  0.00    +0.000 N 
ATOM     39  H   PHE B  49     -10.539  11.736 -14.969  0.00  0.00    +0.000 HD
BRANCH  36  40
ATOM     40  CA  LEU B  48     -11.726   9.540 -15.510  0.00  0.00    +0.000 C 
BRANCH  40  43
ATOM     41  C   GLU B  47     -12.102  11.110 -17.313  0.00  0.00    +0.000 C 
ATOM     42  O   GLU B  47     -13.242  11.392 -16.874  0.00  0.00    +0.000 OA
ATOM     43  N   LEU B  48     -11.301  10.236 -16.720  0.00  0.00    +0.000 N 
ATOM     44  H   LEU B  48     -10.411  10.055 -17.100  0.00  0.00    +0.000 HD
BRANCH  41  45
ATOM     45  CA  GLU B  47     -11.561  11.753 -18.589  0.00  0.00    +0.000 C 
BRANCH  45  48
ATOM     46  C   GLU B  46      -9.725  12.971 -17.586  0.00  0.00    +0.000 C 
ATOM     47  O   GLU B  46     -10.555  13.635 -16.926  0.00  0.00    +0.000 OA
ATOM     48  N   GLU B  47     -10.122  12.044 -18.461  0.00  0.00    +0.000 N 
ATOM     49  H   GLU B  47      -9.464  11.562 -19.012  0.00  0.00    +0.000 HD
BRANCH  46  50
ATOM     50  CA  GLU B  46      -8.236  13.298 -17.530  0.00  0.00    +0.000 C 
BRANCH  50  53
ATOM     51  C   VAL B  45      -7.644  11.188 -16.549  0.00  0.00    +0.000 C 
ATOM     52  O   VAL B  45      -8.479  11.420 -15.639  0.00  0.00    +0.000 OA
ATOM     53  N   GLU B  46      -7.439  12.083 -17.545  0.00  0.00    +0.000 N 
ATOM     54  H   GLU B  46      -6.775  11.917 -18.252  0.00  0.00    +0.000 HD
BRANCH  51  55
ATOM     55  CA  VAL B  45      -6.866   9.868 -16.612  0.00  0.00    +0.000 C 
BRANCH  55  58
ATOM     56  C   VAL B  44      -7.947   9.015 -18.592  0.00  0.00    +0.000 C 
ATOM     57  O   VAL B  44      -9.059   9.146 -18.037  0.00  0.00    +0.000 OA
ATOM     58  N   VAL B  45      -6.811   9.361 -17.981  0.00  0.00    +0.000 N 
ATOM     59  H   VAL B  45      -5.948   9.276 -18.447  0.00  0.00    +0.000 HD
BRANCH  56  60
ATOM     60  CA  VAL B  44      -7.831   8.437 -19.984  0.00  0.00    +0.000 C 
BRANCH  60  63
ATOM     61  C   THR B  43      -7.131  10.419 -21.182  0.00  0.00    +0.000 C 
ATOM     62  O   THR B  43      -8.195  11.026 -20.887  0.00  0.00    +0.000 OA
ATOM     63  N   VAL B  44      -6.841   9.176 -20.774  0.00  0.00    +0.000 N 
ATOM     64  H   VAL B  44      -5.976   8.765 -21.001  0.00  0.00    +0.000 HD
BRANCH  61  65
ATOM     65  CA  THR B  43      -6.070  11.124 -22.021  0.00  0.00    +0.000 C 
BRANCH  65  68
ATOM     66  C   ALA B  42      -4.414  11.465 -20.265  0.00  0.00    +0.000 C 
ATOM     67  O   ALA B  42      -5.227  12.093 -19.568  0.00  0.00    +0.000 OA
ATOM     68  N   THR B  43      -4.755  10.910 -21.443  0.00  0.00    +0.000 N 
ATOM     69  H   THR B  43      -4.102  10.349 -21.921  0.00  0.00    +0.000 HD
BRANCH  66  70
ATOM     70  CA  ALA B  42      -2.980  11.276 -19.800  0.00  0.00    +0.000 C 
ATOM     71  CB  ALA B  42      -2.113  12.367 -20.476  0.00  0.00    +0.000 C 
BRANCH  70  74
ATOM     72  C   PHE B  41      -3.070   8.826 -19.687  0.00  0.00    +0.000 C 
ATOM     73  O   PHE B  41      -4.056   8.877 -18.943  0.00  0.00    +0.000 OA
ATOM     74  N   ALA B  42      -2.498   9.927 -20.166  0.00  0.00    +0.000 N 
ATOM     75  H   ALA B  42      -1.734   9.842 -20.780  0.00  0.00    +0.000 HD
BRANCH  72  76
ATOM     76  CA  PHE B  41      -2.428   7.492 -20.081  0.00  0.00    +0.000 C 
BRANCH  76  79
ATOM     77  C   ARG B  40      -3.299   7.537 -22.367  0.00  0.00    +0.000 C 
ATOM     78  O   ARG B  40      -4.455   7.634 -21.938  0.00  0.00    +0.000 OA
ATOM     79  N   PHE B  41      -2.259   7.417 -21.540  0.00  0.00    +0.000 N 
ATOM     80  H   PHE B  41      -1.360   7.275 -21.914  0.00  0.00    +0.000 HD
BRANCH  77  81
ATOM     81  CA  ARG B  40      -3.005   7.460 -23.862  0.00  0.00    +0.000 C 
BRANCH  81  84
ATOM     82  C   GLY B  39      -1.908   9.641 -23.907  0.00  0.00    +0.000 C 
ATOM     83  O   GLY B  39      -2.937  10.183 -23.516  0.00  0.00    +0.000 OA
ATOM     84  N   ARG B  40      -1.841   8.311 -24.162  0.00  0.00    +0.000 N 
ATOM     85  H   ARG B  40      -1.023   7.918 -24.544  0.00  0.00    +0.000 HD
BRANCH  82  86
ATOM     86  CA  GLY B  39      -0.641  10.462 -24.161  0.00  0.00    +0.000 C 
BRANCH  86  89
ATOM     87  C   ARG B  38       0.783   9.505 -22.414  0.00  0.00    +0.000 C 
ATOM     88  O   ARG B  38      -0.007   9.851 -21.504  0.00  0.00    +0.000 OA
ATOM     89  N   GLY B  39       0.557   9.729 -23.730  0.00  0.00    +0.000 N 
ATOM     90  H   GLY B  39       1.198   9.399 -24.401  0.00  0.00    +0.000 HD
BRANCH  87  91
ATOM     91  CA  ARG B  38       2.031   8.734 -22.062  0.00  0.00    +0.000 C 
BRANCH  91  94
ATOM     92  C   ALA B  37       1.437   6.704 -23.230  0.00  0.00    +0.000 C 
ATOM     93  O   ALA B  37       0.408   6.641 -22.552  0.00  0.00    +0.000 OA
ATOM     94  N   ARG B  38       2.293   7.723 -23.094  0.00  0.00    +0.000 N 
ATOM     95  H   ARG B  38       3.084   7.794 -23.675  0.00  0.00    +0.000 HD
BRANCH  92  96
ATOM     96  CA  ALA B  37       1.780   5.598 -24.245  0.00  0.00    +0.000 C 
ATOM     97  CB  ALA B  37       2.806   4.585 -23.647  0.00  0.00    +0.000 C 
BRANCH  96 100
ATOM     98  C   THR B  36       1.569   6.968 -26.224  0.00  0.00    +0.000 C 
ATOM     99  O   THR B  36       0.499   7.406 -25.789  0.00  0.00    +0.000 OA
ATOM    100  N   ALA B  37       2.324   6.137 -25.491  0.00  0.00    +0.000 N 
ATOM    101  H   ALA B  37       3.231   5.893 -25.787  0.00  0.00    +0.000 HD
BRANCH  98 102
ATOM    102  CA  THR B  36       2.028   7.363 -27.601  0.00  0.00    +0.000 C 
BRANCH 102 105
ATOM    103  C   PHE B  35       4.387   7.807 -27.884  0.00  0.00    +0.000 C 
ATOM    104  O   PHE B  35       4.200   8.983 -27.591  0.00  0.00    +0.000 OA
ATOM    105  N   THR B  36       3.406   6.928 -27.892  0.00  0.00    +0.000 N 
ATOM    106  H   THR B  36       3.593   5.982 -28.092  0.00  0.00    +0.000 HD
BRANCH 103 107
ATOM    107  CA  PHE B  35       5.793   7.342 -28.238  0.00  0.00    +0.000 C 
BRANCH 107 110
ATOM    108  C   PRO B  34       6.141   5.277 -26.967  0.00  0.00    +0.000 C 
ATOM    109  O   PRO B  34       6.185   5.920 -25.914  0.00  0.00    +0.000 OA
ATOM    110  N   PHE B  35       5.928   5.875 -28.154  0.00  0.00    +0.000 N 
ATOM    111  H   PHE B  35       5.862   5.330 -28.971  0.00  0.00    +0.000 HD
BRANCH 108 115
ATOM    112  C   THR B  33       4.207   3.101 -27.843  0.00  0.00    +0.000 C 
ATOM    113  O   THR B  33       3.699   3.834 -26.985  0.00  0.00    +0.000 OA
ATOM    114  N   PRO B  34       5.525   3.040 -27.938  0.00  0.00    +0.000 N 
ATOM    115  CA  PRO B  34       6.350   3.757 -26.945  0.00  0.00    +0.000 C 
ATOM    116  CB  PRO B  34       7.798   3.363 -27.345  0.00  0.00    +0.000 C 
ATOM    117  CG  PRO B  34       7.632   2.041 -27.985  0.00  0.00    +0.000 C 
ATOM    118  CD  PRO B  34       6.347   2.134 -28.776  0.00  0.00    +0.000 C 
BRANCH 112 119
ATOM    119  CA  THR B  33       3.323   2.316 -28.807  0.00  0.00    +0.000 C 
BRANCH 119 122
ATOM    120  C   LEU B  32       1.153   1.304 -28.212  0.00  0.00    +0.000 C 
ATOM    121  O   LEU B  32       1.381   0.269 -28.861  0.00  0.00    +0.000 OA
ATOM    122  N   THR B  33       1.981   2.394 -28.214  0.00  0.00    +0.000 N 
ATOM    123  H   THR B  33       1.674   3.239 -27.814  0.00  0.00    +0.000 HD
BRANCH 120 124
ATOM    124  CA  LEU B  32      -0.044   1.397 -27.300  0.00  0.00    +0.000 C 
BRANCH 124 127
ATOM    125  C   HIS B  31      -1.884   1.006 -28.825  0.00  0.00    +0.000 C 
ATOM    126  O   HIS B  31      -1.568   1.955 -29.528  0.00  0.00    +0.000 OA
ATOM    127  N   LEU B  32      -1.156   0.605 -27.802  0.00  0.00    +0.000 N 
ATOM    128  H   LEU B  32      -1.370  -0.252 -27.367  0.00  0.00    +0.000 HD
BRANCH 125 129
ATOM    129  CA  HIS B  31      -3.129   0.162 -29.119  0.00  0.00    +0.000 C 
BRANCH 129 132
ATOM    130  C   LEU B  30      -4.530   1.172 -27.376  0.00  0.00    +0.000 C 
ATOM    131  O   LEU B  30      -4.189   2.311 -27.739  0.00  0.00    +0.000 OA
ATOM    132  N   HIS B  31      -4.032   0.085 -27.950  0.00  0.00    +0.000 N 
ATOM    133  H   HIS B  31      -4.270  -0.799 -27.587  0.00  0.00    +0.000 HD
BRANCH 130 134
ATOM    134  CA  LEU B  30      -5.499   0.974 -26.188  0.00  0.00    +0.000 C 
BRANCH 134 137
ATOM    135  C   GLN B  29      -7.458   0.403 -27.512  0.00  0.00    +0.000 C 
ATOM    136  O   GLN B  29      -7.224   1.328 -28.308  0.00  0.00    +0.000 OA
ATOM    137  N   LEU B  30      -6.634   0.089 -26.509  0.00  0.00    +0.000 N 
ATOM    138  H   LEU B  30      -6.784  -0.731 -25.985  0.00  0.00    +0.000 HD
BRANCH 135 139
ATOM    139  CA  GLN B  29      -8.733  -0.407 -27.681  0.00  0.00    +0.000 C 
BRANCH 139 142
ATOM    140  C   SER B  28      -8.554  -2.828 -27.428  0.00  0.00    +0.000 C 
ATOM    141  O   SER B  28      -8.197  -2.952 -28.599  0.00  0.00    +0.000 OA
ATOM    142  N   GLN B  29      -8.766  -1.632 -26.881  0.00  0.00    +0.000 N 
ATOM    143  H   GLN B  29      -8.949  -1.571 -25.916  0.00  0.00    +0.000 HD
BRANCH 140 144
ATOM    144  CA  SER B  28      -8.757  -4.077 -26.580  0.00  0.00    +0.000 C 
BRANCH 144 147
ATOM    145  C   SER B  27      -7.674  -3.794 -24.451  0.00  0.00    +0.000 C 
ATOM    146  O   SER B  27      -6.549  -3.855 -24.988  0.00  0.00    +0.000 OA
ATOM    147  N   SER B  28      -8.804  -3.816 -25.162  0.00  0.00    +0.000 N 
ATOM    148  H   SER B  28      -9.668  -3.654 -24.719  0.00  0.00    +0.000 HD
BRANCH 145 149
ATOM    149  CA  SER B  27      -7.821  -3.640 -22.950  0.00  0.00    +0.000 C 
BRANCH 149 152
ATOM    150  C   MET B  26      -8.929  -1.489 -23.070  0.00  0.00    +0.000 C 
ATOM    151  O   MET B  26      -8.066  -1.061 -23.844  0.00  0.00    +0.000 OA
ATOM    152  N   SER B  27      -8.926  -2.740 -22.631  0.00  0.00    +0.000 N 
ATOM    153  H   SER B  27      -9.677  -3.066 -22.084  0.00  0.00    +0.000 HD
BRANCH 150 154
ATOM    154  CA  MET B  26     -10.102  -0.623 -22.640  0.00  0.00    +0.000 C 
BRANCH 154 157
ATOM    155  C   GLU B  25     -11.784  -1.809 -23.935  0.00  0.00    +0.000 C 
ATOM    156  O   GLU B  25     -11.166  -1.611 -25.004  0.00  0.00    +0.000 OA
ATOM    157  N   MET B  26     -11.346  -1.383 -22.754  0.00  0.00    +0.000 N 
ATOM    158  H   MET B  26     -11.868  -1.583 -21.943  0.00  0.00    +0.000 HD
BRANCH 155 159
ATOM    159  CA  GLU B  25     -13.105  -2.603 -23.940  0.00  0.00    +0.000 C 
BRANCH 159 162
ATOM    160  C   ALA B  24     -12.234  -4.585 -22.847  0.00  0.00    +0.000 C 
ATOM    161  O   ALA B  24     -11.402  -4.742 -23.756  0.00  0.00    +0.000 OA
ATOM    162  N   GLU B  25     -13.138  -3.598 -22.877  0.00  0.00    +0.000 N 
ATOM    163  H   GLU B  25     -13.828  -3.545 -22.177  0.00  0.00    +0.000 HD
BRANCH 160 164
ATOM    164  CA  ALA B  24     -12.326  -5.589 -21.700  0.00  0.00    +0.000 C 
ATOM    165  CB  ALA B  24     -13.414  -6.613 -22.038  0.00  0.00    +0.000 C 
BRANCH 164 168
ATOM    166  C   PHE B  23     -11.758  -4.094 -19.895  0.00  0.00    +0.000 C 
ATOM    167  O   PHE B  23     -10.675  -3.826 -20.477  0.00  0.00    +0.000 OA
ATOM    168  N   ALA B  24     -12.657  -4.952 -20.437  0.00  0.00    +0.000 N 
ATOM    169  H   ALA B  24     -13.512  -5.139 -19.986  0.00  0.00    +0.000 HD
BRANCH 166 170
ATOM    170  CA  PHE B  23     -12.139  -3.432 -18.586  0.00  0.00    +0.000 C 
BRANCH 170 173
ATOM    171  C   ASP B  22     -13.813  -1.924 -19.523  0.00  0.00    +0.000 C 
ATOM    172  O   ASP B  22     -12.985  -1.383 -20.268  0.00  0.00    +0.000 OA
ATOM    173  N   PHE B  23     -13.497  -2.899 -18.673  0.00  0.00    +0.000 N 
ATOM    174  H   PHE B  23     -14.196  -3.270 -18.088  0.00  0.00    +0.000 HD
BRANCH 171 175
ATOM    175  CA  ASP B  22     -15.255  -1.496 -19.533  0.00  0.00    +0.000 C 
BRANCH 175 178
ATOM    176  C   ARG B  21     -16.191  -3.641 -20.283  0.00  0.00    +0.000 C 
ATOM    177  O   ARG B  21     -15.575  -3.591 -21.372  0.00  0.00    +0.000 OA
ATOM    178  N   ASP B  22     -16.114  -2.671 -19.364  0.00  0.00    +0.000 N 
ATOM    179  H   ASP B  22     -16.654  -2.750 -18.545  0.00  0.00    +0.000 HD
BRANCH 176 180
ATOM    180  CA  ARG B  21     -17.094  -4.842 -19.951  0.00  0.00    +0.000 C 
BRANCH 180 183
ATOM    181  C   ARG B  20     -15.779  -5.720 -18.129  0.00  0.00    +0.000 C 
ATOM    182  O   ARG B  20     -14.821  -5.833 -18.916  0.00  0.00    +0.000 OA
ATOM    183  N   ARG B  21     -16.969  -5.266 -18.557  0.00  0.00    +0.000 N 
ATOM    184  H   ARG B  21     -17.739  -5.220 -17.946  0.00  0.00    +0.000 HD
BRANCH 181 185
ATOM    185  CA  ARG B  20     -15.615  -6.102 -16.643  0.00  0.00    +0.000 C 
BRANCH 185 188
ATOM    186  C   TYR B  19     -16.198  -3.914 -15.750  0.00  0.00    +0.000 C 
ATOM    187  O   TYR B  19     -15.365  -3.361 -16.470  0.00  0.00    +0.000 OA
ATOM    188  N   ARG B  20     -16.422  -5.235 -15.772  0.00  0.00    +0.000 N 
ATOM    189  H   ARG B  20     -17.126  -5.625 -15.205  0.00  0.00    +0.000 HD
BRANCH 186 190
ATOM    190  CA  TYR B  19     -17.048  -3.124 -14.741  0.00  0.00    +0.000 C 
BRANCH 190 193
ATOM    191  C   ARG B  18     -18.326  -4.301 -13.022  0.00  0.00    +0.000 C 
ATOM    192  O   ARG B  18     -19.369  -4.121 -13.621  0.00  0.00    +0.000 OA
ATOM    193  N   TYR B  19     -17.152  -3.905 -13.496  0.00  0.00    +0.000 N 
ATOM    194  H   TYR B  19     -16.331  -4.138 -13.005  0.00  0.00    +0.000 HD
BRANCH 191 195
ATOM    195  CA  ARG B  18     -18.315  -5.033 -11.682  0.00  0.00    +0.000 C 
BRANCH 195 198
ATOM    196  C   ARG B  17     -16.870  -6.904 -12.133  0.00  0.00    +0.000 C 
ATOM    197  O   ARG B  17     -17.669  -7.346 -12.991  0.00  0.00    +0.000 OA
ATOM    198  N   ARG B  18     -17.104  -5.803 -11.443  0.00  0.00    +0.000 N 
ATOM    199  H   ARG B  18     -16.457  -5.502 -10.765  0.00  0.00    +0.000 HD
BRANCH 196 200
ATOM    200  CA  ARG B  17     -15.586  -7.675 -11.807  0.00  0.00    +0.000 C 
BRANCH 200 203
ATOM    201  C   SER B  16     -13.858  -6.205 -12.705  0.00  0.00    +0.000 C 
ATOM    202  O   SER B  16     -14.049  -6.618 -13.860  0.00  0.00    +0.000 OA
ATOM    203  N   ARG B  17     -14.463  -6.751 -11.640  0.00  0.00    +0.000 N 
ATOM    204  H   ARG B  17     -14.148  -6.528 -10.734  0.00  0.00    +0.000 HD
BRANCH 201 205
ATOM    205  CA  SER B  16     -12.897  -5.040 -12.480  0.00  0.00    +0.000 C 
BRANCH 205 208
ATOM    206  C   PHE B  15     -14.066  -3.699 -10.896  0.00  0.00    +0.000 C 
ATOM    207  O   PHE B  15     -14.966  -3.525 -11.741  0.00  0.00    +0.000 OA
ATOM    208  N   SER B  16     -13.012  -4.459 -11.150  0.00  0.00    +0.000 N 
ATOM    209  H   SER B  16     -12.328  -4.626 -10.462  0.00  0.00    +0.000 HD
BRANCH 206 210
ATOM    210  CA  PHE B  15     -14.101  -3.011  -9.543  0.00  0.00    +0.000 C 
BRANCH 210 213
ATOM    211  C   ASP B  14     -14.522  -5.053  -8.284  0.00  0.00    +0.000 C 
ATOM    212  O   ASP B  14     -15.487  -5.326  -9.023  0.00  0.00    +0.000 OA
ATOM    213  N   PHE B  15     -13.772  -3.959  -8.482  0.00  0.00    +0.000 N 
ATOM    214  H   PHE B  15     -12.991  -3.793  -7.906  0.00  0.00    +0.000 HD
BRANCH 211 215
ATOM    215  CA  ASP B  14     -14.072  -6.006  -7.173  0.00  0.00    +0.000 C 
BRANCH 215 218
ATOM    216  C   ASP B  13     -11.957  -6.726  -8.199  0.00  0.00    +0.000 C 
ATOM    217  O   ASP B  13     -12.573  -7.206  -9.162  0.00  0.00    +0.000 OA
ATOM    218  N   ASP B  14     -12.586  -6.156  -7.155  0.00  0.00    +0.000 N 
ATOM    219  H   ASP B  14     -12.068  -5.838  -6.381  0.00  0.00    +0.000 HD
BRANCH 216 220
ATOM    220  CA  ASP B  13     -10.463  -6.886  -8.110  0.00  0.00    +0.000 C 
BRANCH 220 223
ATOM    221  C   GLY B  12     -10.080  -4.502  -8.256  0.00  0.00    +0.000 C 
ATOM    222  O   GLY B  12     -10.625  -4.466  -9.363  0.00  0.00    +0.000 OA
ATOM    223  N   ASP B  13      -9.885  -5.636  -7.593  0.00  0.00    +0.000 N 
ATOM    224  H   ASP B  13      -9.358  -5.640  -6.762  0.00  0.00    +0.000 HD
BRANCH 221 225
ATOM    225  CA  GLY B  12      -9.569  -3.222  -7.637  0.00  0.00    +0.000 C 
BRANCH 225 228
ATOM    226  C   ALA B  11     -11.019  -3.154  -5.729  0.00  0.00    +0.000 C 
ATOM    227  O   ALA B  11     -12.014  -3.070  -6.484  0.00  0.00    +0.000 OA
ATOM    228  N   GLY B  12      -9.768  -3.212  -6.192  0.00  0.00    +0.000 N 
ATOM    229  H   GLY B  12      -9.001  -3.247  -5.575  0.00  0.00    +0.000 HD
BRANCH 226 230
ATOM    230  CA  ALA B  11     -11.186  -3.076  -4.205  0.00  0.00    +0.000 C 
ATOM    231  CB  ALA B  11     -10.939  -1.640  -3.681  0.00  0.00    +0.000 C 
BRANCH 230 234
ATOM    232  C   GLN B  10     -10.347  -5.336  -3.862  0.00  0.00    +0.000 C 
ATOM    233  O   GLN B  10     -11.279  -5.822  -4.502  0.00  0.00    +0.000 OA
ATOM    234  N   ALA B  11     -10.275  -4.033  -3.555  0.00  0.00    +0.000 N 
ATOM    235  H   ALA B  11      -9.615  -3.717  -2.897  0.00  0.00    +0.000 HD
BRANCH 232 236
ATOM    236  CA  GLN B  10      -9.346  -6.266  -3.177  0.00  0.00    +0.000 C 
BRANCH 236 239
ATOM    237  C   ARG B   9      -7.424  -5.550  -4.409  0.00  0.00    +0.000 C 
ATOM    238  O   ARG B   9      -7.932  -5.974  -5.430  0.00  0.00    +0.000 OA
ATOM    239  N   GLN B  10      -8.002  -5.688  -3.226  0.00  0.00    +0.000 N 
ATOM    240  H   GLN B  10      -7.541  -5.410  -2.402  0.00  0.00    +0.000 HD
BRANCH 237 241
ATOM    241  CA  ARG B   9      -6.072  -4.841  -4.459  0.00  0.00    +0.000 C 
BRANCH 241 244
ATOM    242  C   LEU B   8      -6.713  -2.698  -3.634  0.00  0.00    +0.000 C 
ATOM    243  O   LEU B   8      -7.489  -2.588  -4.568  0.00  0.00    +0.000 OA
ATOM    244  N   ARG B   9      -5.970  -3.777  -3.472  0.00  0.00    +0.000 N 
ATOM    245  H   ARG B   9      -5.362  -3.860  -2.702  0.00  0.00    +0.000 HD
BRANCH 242 246
ATOM    246  CA  LEU B   8      -6.568  -1.583  -2.595  0.00  0.00    +0.000 C 
BRANCH 246 249
ATOM    247  C   THR B   7      -7.649  -2.697  -0.769  0.00  0.00    +0.000 C 
ATOM    248  O   THR B   7      -8.652  -2.889  -1.476  0.00  0.00    +0.000 OA
ATOM    249  N   LEU B   8      -6.574  -2.091  -1.236  0.00  0.00    +0.000 N 
ATOM    250  H   LEU B   8      -5.779  -1.984  -0.665  0.00  0.00    +0.000 HD
BRANCH 247 251
ATOM    251  CA  THR B   7      -7.581  -3.196   0.658  0.00  0.00    +0.000 C 
BRANCH 251 254
ATOM    252  C   LEU B   6      -5.964  -4.953   0.301  0.00  0.00    +0.000 C 
ATOM    253  O   LEU B   6      -6.674  -5.428  -0.573  0.00  0.00    +0.000 OA
ATOM    254  N   THR B   7      -6.302  -3.837   0.944  0.00  0.00    +0.000 N 
ATOM    255  H   THR B   7      -5.691  -3.446   1.610  0.00  0.00    +0.000 HD
BRANCH 252 256
ATOM    256  CA  LEU B   6      -4.632  -5.606   0.681  0.00  0.00    +0.000 C 
BRANCH 256 259
ATOM    257  C   HIS B   5      -3.241  -3.862  -0.287  0.00  0.00    +0.000 C 
ATOM    258  O   HIS B   5      -3.682  -4.084  -1.401  0.00  0.00    +0.000 OA
ATOM    259  N   LEU B   6      -3.622  -4.560   0.788  0.00  0.00    +0.000 N 
ATOM    260  H   LEU B   6      -3.215  -4.365   1.663  0.00  0.00    +0.000 HD
BRANCH 257 261
ATOM    261  CA  HIS B   5      -2.183  -2.808  -0.089  0.00  0.00    +0.000 C 
BRANCH 261 264
ATOM    262  C   VAL B   4      -3.509  -1.288   1.224  0.00  0.00    +0.000 C 
ATOM    263  O   VAL B   4      -4.320  -1.195   0.309  0.00  0.00    +0.000 OA
ATOM    264  N   HIS B   5      -2.446  -2.085   1.146  0.00  0.00    +0.000 N 
ATOM    265  H   HIS B   5      -1.843  -2.185   1.918  0.00  0.00    +0.000 HD
BRANCH 262 266
ATOM    266  CA  VAL B   4      -3.697  -0.513   2.521  0.00  0.00    +0.000 C 
BRANCH 266 269
ATOM    267  C   VAL B   3      -4.057  -2.429   3.950  0.00  0.00    +0.000 C 
ATOM    268  O   VAL B   3      -5.033  -2.778   3.249  0.00  0.00    +0.000 OA
ATOM    269  N   VAL B   4      -3.331  -1.348   3.660  0.00  0.00    +0.000 N 
ATOM    270  H   VAL B   4      -2.551  -1.114   4.213  0.00  0.00    +0.000 HD
BRANCH 267 271
ATOM    271  CA  VAL B   3      -3.618  -3.257   5.156  0.00  0.00    +0.000 C 
BRANCH 271 274
ATOM    272  C   GLU B   2      -1.420  -3.863   4.303  0.00  0.00    +0.000 C 
ATOM    273  O   GLU B   2      -1.907  -4.343   3.264  0.00  0.00    +0.000 OA
ATOM    274  N   VAL B   3      -2.163  -3.275   5.260  0.00  0.00    +0.000 N 
ATOM    275  H   VAL B   3      -1.722  -2.855   6.034  0.00  0.00    +0.000 HD
BRANCH 272 276
ATOM    276  CA  GLU B   2       0.074  -3.956   4.543  0.00  0.00    +0.000 C 
BRANCH 276 279
ATOM    277  C   SER B   1       0.318  -1.603   5.014  0.00  0.00    +0.000 C 
ATOM    278  O   SER B   1      -0.234  -1.317   3.948  0.00  0.00    +0.000 OA
ATOM    279  N   GLU B   2       0.545  -2.866   5.387  0.00  0.00    +0.000 N 
ATOM    280  H   GLU B   2       1.026  -3.058   6.224  0.00  0.00    +0.000 HD
BRANCH 277 281
ATOM    281  CA  SER B   1       0.786  -0.503   5.966  0.00  0.00    +0.000 C 
BRANCH 281 282
ATOM    282  N   SER B   1       0.524  -0.884   7.341  0.00  0.00    +0.000 N 
ATOM    283  H   SER B   1      -0.472  -1.069   7.459  0.00  0.00    +0.000 HD
ATOM    284  H   SER B   1       0.805  -0.126   7.963  0.00  0.00    +0.000 HD
ATOM    285  H   SER B   1       1.055  -1.725   7.568  0.00  0.00    +0.000 HD
ENDBRANCH 281 282
BRANCH 281 286
ATOM    286  CB  SER B   1       2.276  -0.217   5.750  0.00  0.00    +0.000 C 
BRANCH 286 287
ATOM    287  OG  SER B   1       2.513   0.299   4.441  0.00  0.00    +0.000 OA
ATOM    288  H   SER B   1       2.027   1.131   4.328  0.00  0.00    +0.000 HD
ENDBRANCH 286 287
ENDBRANCH 281 286
ENDBRANCH 277 281
ENDBRANCH 276 279
BRANCH 276 289
ATOM    289  CB  GLU B   2       0.419  -5.309   5.166  0.00  0.00    +0.000 C 
BRANCH 289 290
ATOM    290  CG  GLU B   2       1.826  -5.795   4.853  0.00  0.00    +0.000 C 
BRANCH 290 291
ATOM    291  CD  GLU B   2       2.191  -5.614   3.383  0.00  0.00    +0.000 C 
ATOM    292  OE1 GLU B   2       1.628  -6.339   2.523  0.00  0.00    +0.000 OA
BRANCH 291 293
ATOM    293  OE2 GLU B   2       3.038  -4.738   3.089  0.00  0.00    +0.000 OA
ATOM    294  H   GLU B   2       3.431  -4.221   3.764  0.00  0.00    +0.000 HD
ENDBRANCH 291 293
ENDBRANCH 290 291
ENDBRANCH 289 290
ENDBRANCH 276 289
ENDBRANCH 272 276
ENDBRANCH 271 274
BRANCH 271 295
ATOM    295  CB  VAL B   3      -4.245  -2.754   6.477  0.00  0.00    +0.000 C 
ATOM    296  CG1 VAL B   3      -5.745  -2.839   6.351  0.00  0.00    +0.000 C 
ATOM    297  CG2 VAL B   3      -3.786  -3.588   7.601  0.00  0.00    +0.000 C 
ENDBRANCH 271 295
ENDBRANCH 267 271
ENDBRANCH 266 269
BRANCH 266 298
ATOM    298  CB  VAL B   4      -2.887   0.797   2.508  0.00  0.00    +0.000 C 
ATOM    299  CG1 VAL B   4      -3.067   1.565   1.211  0.00  0.00    +0.000 C 
ATOM    300  CG2 VAL B   4      -3.270   1.633   3.708  0.00  0.00    +0.000 C 
ENDBRANCH 266 298
ENDBRANCH 262 266
ENDBRANCH 261 264
BRANCH 261 301
ATOM    301  CB  HIS B   5      -0.776  -3.464  -0.034  0.00  0.00    +0.000 C 
BRANCH 301 302
ATOM    302  CG  HIS B   5       0.314  -2.475   0.247  0.00  0.00    +0.000 A 
ATOM    303  ND1 HIS B   5       0.524  -1.391  -0.572  0.00  0.00    +0.000 N 
ATOM    304  CD2 HIS B   5       1.191  -2.342   1.285  0.00  0.00    +0.000 A 
ATOM    305  CE1 HIS B   5       1.525  -0.653  -0.084  0.00  0.00    +0.000 A 
ATOM    306  NE2 HIS B   5       1.942  -1.206   1.049  0.00  0.00    +0.000 N 
ATOM    307  H   HIS B   5       0.016  -1.190  -1.391  0.00  0.00    +0.000 HD
ATOM    308  H   HIS B   5       2.664  -0.864   1.624  0.00  0.00    +0.000 HD
ENDBRANCH 301 302
ENDBRANCH 261 301
ENDBRANCH 257 261
ENDBRANCH 256 259
BRANCH 256 309
ATOM    309  CB  LEU B   6      -4.723  -6.327   2.048  0.00  0.00    +0.000 C 
BRANCH 309 310
ATOM    310  CG  LEU B   6      -5.878  -7.343   2.131  0.00  0.00    +0.000 C 
ATOM    311  CD1 LEU B   6      -5.723  -8.476   1.144  0.00  0.00    +0.000 C 
ATOM    312  CD2 LEU B   6      -5.937  -7.904   3.593  0.00  0.00    +0.000 C 
ENDBRANCH 309 310
ENDBRANCH 256 309
ENDBRANCH 252 256
ENDBRANCH 251 254
BRANCH 251 313
ATOM    313  CB  THR B   7      -7.778  -2.001   1.595  0.00  0.00    +0.000 C 
ATOM    314  CG2 THR B   7      -9.204  -1.373   1.314  0.00  0.00    +0.000 C 
BRANCH 313 315
ATOM    315  OG1 THR B   7      -7.736  -2.517   2.945  0.00  0.00    +0.000 OA
ATOM    316  H   THR B   7      -8.423  -3.192   3.054  0.00  0.00    +0.000 HD
ENDBRANCH 313 315
ENDBRANCH 251 313
ENDBRANCH 247 251
ENDBRANCH 246 249
BRANCH 246 317
ATOM    317  CB  LEU B   8      -5.302  -0.772  -2.848  0.00  0.00    +0.000 C 
BRANCH 317 318
ATOM    318  CG  LEU B   8      -5.152  -0.083  -4.198  0.00  0.00    +0.000 C 
ATOM    319  CD1 LEU B   8      -6.229   0.962  -4.398  0.00  0.00    +0.000 C 
ATOM    320  CD2 LEU B   8      -3.778   0.560  -4.278  0.00  0.00    +0.000 C 
ENDBRANCH 317 318
ENDBRANCH 246 317
ENDBRANCH 242 246
ENDBRANCH 241 244
BRANCH 241 321
ATOM    321  CB  ARG B   9      -4.880  -5.790  -4.411  0.00  0.00    +0.000 C 
BRANCH 321 322
ATOM    322  CG  ARG B   9      -4.899  -6.779  -3.278  0.00  0.00    +0.000 C 
BRANCH 322 323
ATOM    323  CD  ARG B   9      -3.515  -7.380  -3.101  0.00  0.00    +0.000 C 
BRANCH 323 324
ATOM    324  NE  ARG B   9      -3.580  -8.616  -2.346  0.00  0.00    +0.000 N 
ATOM    325  CZ  ARG B   9      -2.535  -9.391  -2.085  0.00  0.00    +0.000 C 
ATOM    326  NH1 ARG B   9      -1.328  -9.061  -2.524  0.00  0.00    +0.000 NA
ATOM    327  NH2 ARG B   9      -2.704 -10.502  -1.390  0.00  0.00    +0.000 N 
ATOM    328  H   ARG B   9      -4.459  -8.899  -2.004  0.00  0.00    +0.000 HD
ATOM    329  H   ARG B   9      -1.202  -8.233  -3.042  0.00  0.00    +0.000 HD
ATOM    330  H   ARG B   9      -0.558  -9.644  -2.332  0.00  0.00    +0.000 HD
ATOM    331  H   ARG B   9      -1.719  -9.717  -3.146  0.00  0.00    +0.000 HD
ATOM    332  H   ARG B   9      -1.933 -11.081  -1.193  0.00  0.00    +0.000 HD
ATOM    333  H   ARG B   9      -3.601 -10.750  -1.069  0.00  0.00    +0.000 HD
ENDBRANCH 323 324
ENDBRANCH 322 323
ENDBRANCH 321 322
ENDBRANCH 241 321
ENDBRANCH 237 241
ENDBRANCH 236 239
BRANCH 236 334
ATOM    334  CB  GLN B  10      -9.769  -6.561  -1.741  0.00  0.00    +0.000 C 
BRANCH 334 335
ATOM    335  CG  GLN B  10      -8.951  -7.818  -1.183  0.00  0.00    +0.000 C 
BRANCH 335 336
ATOM    336  CD  GLN B  10      -9.258  -8.145   0.254  0.00  0.00    +0.000 C 
ATOM    337  OE1 GLN B  10      -9.806  -7.309   1.005  0.00  0.00    +0.000 OA
ATOM    338  NE2 GLN B  10      -8.885  -9.355   0.665  0.00  0.00    +0.000 N 
ATOM    339  H   GLN B  10      -8.457  -9.979   0.035  0.00  0.00    +0.000 HD
ATOM    340  H   GLN B  10      -9.037  -9.626   1.599  0.00  0.00    +0.000 HD
ENDBRANCH 335 336
ENDBRANCH 334 335
ENDBRANCH 236 334
ENDBRANCH 232 236
ENDBRANCH 230 234
ENDBRANCH 226 230
ENDBRANCH 225 228
ENDBRANCH 221 225
ENDBRANCH 220 223
BRANCH 220 341
ATOM    341  CB  ASP B  13     -10.099  -8.082  -7.201  0.00  0.00    +0.000 C 
BRANCH 341 342
ATOM    342  CG  ASP B  13      -8.644  -8.525  -7.361  0.00  0.00    +0.000 C 
ATOM    343  OD1 ASP B  13      -8.014  -8.191  -8.409  0.00  0.00    +0.000 OA
BRANCH 342 344
ATOM    344  OD2 ASP B  13      -8.116  -9.259  -6.460  0.00  0.00    +0.000 OA
ATOM    345  H   ASP B  13      -8.607  -9.489  -5.696  0.00  0.00    +0.000 HD
ENDBRANCH 342 344
ENDBRANCH 341 342
ENDBRANCH 220 341
ENDBRANCH 216 220
ENDBRANCH 215 218
BRANCH 215 346
ATOM    346  CB  ASP B  14     -14.517  -5.479  -5.822  0.00  0.00    +0.000 C 
BRANCH 346 347
ATOM    347  CG  ASP B  14     -16.016  -5.312  -5.729  0.00  0.00    +0.000 C 
ATOM    348  OD1 ASP B  14     -16.473  -4.166  -5.766  0.00  0.00    +0.000 OA
BRANCH 347 349
ATOM    349  OD2 ASP B  14     -16.688  -6.381  -5.601  0.00  0.00    +0.000 OA
ATOM    350  H   ASP B  14     -16.251  -7.210  -5.583  0.00  0.00    +0.000 HD
ENDBRANCH 347 349
ENDBRANCH 346 347
ENDBRANCH 215 346
ENDBRANCH 211 215
ENDBRANCH 210 213
BRANCH 210 351
ATOM    351  CB  PHE B  15     -13.044  -1.874  -9.522  0.00  0.00    +0.000 C 
BRANCH 351 352
ATOM    352  CG  PHE B  15     -13.176  -0.929 -10.701  0.00  0.00    +0.000 A 
ATOM    353  CD2 PHE B  15     -14.001   0.195 -10.657  0.00  0.00    +0.000 A 
ATOM    354  CD1 PHE B  15     -12.414  -1.192 -11.874  0.00  0.00    +0.000 A 
ATOM    355  CE2 PHE B  15     -14.096   1.066 -11.765  0.00  0.00    +0.000 A 
ATOM    356  CE1 PHE B  15     -12.529  -0.361 -13.021  0.00  0.00    +0.000 A 
ATOM    357  CZ  PHE B  15     -13.398   0.779 -12.922  0.00  0.00    +0.000 A 
ENDBRANCH 351 352
ENDBRANCH 210 351
ENDBRANCH 206 210
ENDBRANCH 205 208
BRANCH 205 358
ATOM    358  CB  SER B  16     -11.444  -5.456 -12.721  0.00  0.00    +0.000 C 
BRANCH 358 359
ATOM    359  OG  SER B  16     -10.682  -4.246 -12.739  0.00  0.00    +0.000 OA
ATOM    360  H   SER B  16     -10.797  -3.779 -11.896  0.00  0.00    +0.000 HD
ENDBRANCH 358 359
ENDBRANCH 205 358
ENDBRANCH 201 205
ENDBRANCH 200 203
BRANCH 200 361
ATOM    361  CB  ARG B  17     -15.782  -8.490 -10.522  0.00  0.00    +0.000 C 
BRANCH 361 362
ATOM    362  CG  ARG B  17     -14.730  -9.562 -10.289  0.00  0.00    +0.000 C 
BRANCH 362 363
ATOM    363  CD  ARG B  17     -15.087 -10.350  -9.012  0.00  0.00    +0.000 C 
BRANCH 363 364
ATOM    364  NE  ARG B  17     -14.033 -10.245  -7.988  0.00  0.00    +0.000 N 
ATOM    365  CZ  ARG B  17     -14.211  -9.665  -6.802  0.00  0.00    +0.000 C 
ATOM    366  NH1 ARG B  17     -15.405  -9.136  -6.469  0.00  0.00    +0.000 NA
ATOM    367  NH2 ARG B  17     -13.210  -9.616  -5.943  0.00  0.00    +0.000 N 
ATOM    368  H   ARG B  17     -13.148 -10.625  -8.192  0.00  0.00    +0.000 HD
ATOM    369  H   ARG B  17     -16.154  -9.171  -7.107  0.00  0.00    +0.000 HD
ATOM    370  H   ARG B  17     -15.528  -8.715  -5.588  0.00  0.00    +0.000 HD
ATOM    371  H   ARG B  17     -14.630  -9.689  -6.720  0.00  0.00    +0.000 HD
ATOM    372  H   ARG B  17     -12.336 -10.001  -6.183  0.00  0.00    +0.000 HD
ATOM    373  H   ARG B  17     -13.337  -9.194  -5.063  0.00  0.00    +0.000 HD
ENDBRANCH 363 364
ENDBRANCH 362 363
ENDBRANCH 361 362
ENDBRANCH 200 361
ENDBRANCH 196 200
ENDBRANCH 195 198
BRANCH 195 374
ATOM    374  CB  ARG B  18     -18.534  -4.034 -10.545  0.00  0.00    +0.000 C 
BRANCH 374 375
ATOM    375  CG  ARG B  18     -18.818  -4.695  -9.215  0.00  0.00    +0.000 C 
BRANCH 375 376
ATOM    376  CD  ARG B  18     -19.156  -3.693  -8.129  0.00  0.00    +0.000 C 
BRANCH 376 377
ATOM    377  NE  ARG B  18     -19.064  -4.339  -6.833  0.00  0.00    +0.000 N 
ATOM    378  CZ  ARG B  18     -20.034  -5.057  -6.283  0.00  0.00    +0.000 C 
ATOM    379  NH1 ARG B  18     -21.197  -5.193  -6.894  0.00  0.00    +0.000 NA
ATOM    380  NH2 ARG B  18     -19.838  -5.625  -5.110  0.00  0.00    +0.000 N 
ATOM    381  H   ARG B  18     -18.225  -4.237  -6.328  0.00  0.00    +0.000 HD
ATOM    382  H   ARG B  18     -21.345  -4.769  -7.770  0.00  0.00    +0.000 HD
ATOM    383  H   ARG B  18     -21.916  -5.718  -6.473  0.00  0.00    +0.000 HD
ATOM    384  H   ARG B  18     -21.667  -4.407  -7.256  0.00  0.00    +0.000 HD
ATOM    385  H   ARG B  18     -20.554  -6.159  -4.696  0.00  0.00    +0.000 HD
ATOM    386  H   ARG B  18     -18.976  -5.515  -4.648  0.00  0.00    +0.000 HD
ENDBRANCH 376 377
ENDBRANCH 375 376
ENDBRANCH 374 375
ENDBRANCH 195 374
ENDBRANCH 191 195
ENDBRANCH 190 193
BRANCH 190 387
ATOM    387  CB  TYR B  19     -16.507  -1.697 -14.450  0.00  0.00    +0.000 C 
BRANCH 387 388
ATOM    388  CG  TYR B  19     -17.525  -0.986 -13.604  0.00  0.00    +0.000 A 
ATOM    389  CD1 TYR B  19     -18.705  -0.544 -14.158  0.00  0.00    +0.000 A 
ATOM    390  CD2 TYR B  19     -17.363  -0.887 -12.222  0.00  0.00    +0.000 A 
ATOM    391  CE1 TYR B  19     -19.745   0.010 -13.342  0.00  0.00    +0.000 A 
ATOM    392  CE2 TYR B  19     -18.378  -0.369 -11.392  0.00  0.00    +0.000 A 
ATOM    393  CZ  TYR B  19     -19.523   0.123 -11.957  0.00  0.00    +0.000 A 
BRANCH 393 394
ATOM    394  OH  TYR B  19     -20.588   0.615 -11.244  0.00  0.00    +0.000 OA
ATOM    395  H   TYR B  19     -21.344   0.938 -11.694  0.00  0.00    +0.000 HD
ENDBRANCH 393 394
ENDBRANCH 387 388
ENDBRANCH 190 387
ENDBRANCH 186 190
ENDBRANCH 185 188
BRANCH 185 396
ATOM    396  CB  ARG B  20     -16.017  -7.570 -16.433  0.00  0.00    +0.000 C 
BRANCH 396 397
ATOM    397  CG  ARG B  20     -17.433  -7.816 -16.706  0.00  0.00    +0.000 C 
BRANCH 397 398
ATOM    398  CD  ARG B  20     -17.755  -9.343 -16.875  0.00  0.00    +0.000 C 
BRANCH 398 399
ATOM    399  NE  ARG B  20     -19.132  -9.525 -17.396  0.00  0.00    +0.000 N 
ATOM    400  CZ  ARG B  20     -19.446  -9.712 -18.686  0.00  0.00    +0.000 C 
ATOM    401  NH1 ARG B  20     -18.493  -9.771 -19.619  0.00  0.00    +0.000 NA
ATOM    402  NH2 ARG B  20     -20.710  -9.869 -19.042  0.00  0.00    +0.000 N 
ATOM    403  H   ARG B  20     -19.871  -9.507 -16.746  0.00  0.00    +0.000 HD
ATOM    404  H   ARG B  20     -18.736  -9.909 -20.563  0.00  0.00    +0.000 HD
ATOM    405  H   ARG B  20     -17.547  -9.677 -19.363  0.00  0.00    +0.000 HD
ATOM    406  H   ARG B  20     -19.115  -9.628 -18.870  0.00  0.00    +0.000 HD
ATOM    407  H   ARG B  20     -20.941 -10.006 -19.989  0.00  0.00    +0.000 HD
ATOM    408  H   ARG B  20     -21.420  -9.849 -18.360  0.00  0.00    +0.000 HD
ENDBRANCH 398 399
ENDBRANCH 397 398
ENDBRANCH 396 397
ENDBRANCH 185 396
ENDBRANCH 181 185
ENDBRANCH 180 183
BRANCH 180 409
ATOM    409  CB  ARG B  21     -18.559  -4.533 -20.287  0.00  0.00    +0.000 C 
BRANCH 409 410
ATOM    410  CG  ARG B  21     -19.392  -5.751 -20.364  0.00  0.00    +0.000 C 
BRANCH 410 411
ATOM    411  CD  ARG B  21     -20.761  -5.422 -20.999  0.00  0.00    +0.000 C 
BRANCH 411 412
ATOM    412  NE  ARG B  21     -21.609  -6.622 -21.143  0.00  0.00    +0.000 N 
ATOM    413  CZ  ARG B  21     -22.211  -7.202 -20.109  0.00  0.00    +0.000 C 
ATOM    414  NH2 ARG B  21     -22.071  -6.679 -18.891  0.00  0.00    +0.000 N 
ATOM    415  NH1 ARG B  21     -22.944  -8.286 -20.285  0.00  0.00    +0.000 NA
ATOM    416  H   ARG B  21     -21.734  -7.008 -22.040  0.00  0.00    +0.000 HD
ATOM    417  H   ARG B  21     -21.524  -5.871 -18.762  0.00  0.00    +0.000 HD
ATOM    418  H   ARG B  21     -22.515  -7.101 -18.120  0.00  0.00    +0.000 HD
ATOM    419  H   ARG B  21     -23.046  -8.670 -21.186  0.00  0.00    +0.000 HD
ATOM    420  H   ARG B  21     -23.389  -8.710 -19.516  0.00  0.00    +0.000 HD
ATOM    421  H   ARG B  21     -23.747  -8.329 -20.852  0.00  0.00    +0.000 HD
ENDBRANCH 411 412
ENDBRANCH 410 411
ENDBRANCH 409 410
ENDBRANCH 180 409
ENDBRANCH 176 180
ENDBRANCH 175 178
BRANCH 175 422
ATOM    422  CB  ASP B  22     -15.492  -0.501 -18.390  0.00  0.00    +0.000 C 
BRANCH 422 423
ATOM    423  CG  ASP B  22     -16.855   0.261 -18.565  0.00  0.00    +0.000 C 
ATOM    424  OD1 ASP B  22     -17.163   0.715 -19.689  0.00  0.00    +0.000 OA
BRANCH 423 425
ATOM    425  OD2 ASP B  22     -17.622   0.355 -17.603  0.00  0.00    +0.000 OA
ATOM    426  H   ASP B  22     -17.372   0.008 -16.769  0.00  0.00    +0.000 HD
ENDBRANCH 423 425
ENDBRANCH 422 423
ENDBRANCH 175 422
ENDBRANCH 171 175
ENDBRANCH 170 173
BRANCH 170 427
ATOM    427  CB  PHE B  23     -12.086  -4.436 -17.402  0.00  0.00    +0.000 C 
BRANCH 427 428
ATOM    428  CG  PHE B  23     -10.719  -4.931 -17.077  0.00  0.00    +0.000 A 
ATOM    429  CD2 PHE B  23     -10.061  -4.458 -15.943  0.00  0.00    +0.000 A 
ATOM    430  CD1 PHE B  23     -10.195  -5.954 -17.818  0.00  0.00    +0.000 A 
ATOM    431  CE2 PHE B  23      -8.836  -4.987 -15.588  0.00  0.00    +0.000 A 
ATOM    432  CE1 PHE B  23      -8.906  -6.449 -17.480  0.00  0.00    +0.000 A 
ATOM    433  CZ  PHE B  23      -8.280  -5.932 -16.380  0.00  0.00    +0.000 A 
ENDBRANCH 427 428
ENDBRANCH 170 427
ENDBRANCH 166 170
ENDBRANCH 164 168
ENDBRANCH 160 164
ENDBRANCH 159 162
BRANCH 159 434
ATOM    434  CB  GLU B  25     -14.314  -1.664 -23.815  0.00  0.00    +0.000 C 
BRANCH 434 435
ATOM    435  CG  GLU B  25     -14.502  -0.777 -25.026  0.00  0.00    +0.000 C 
BRANCH 435 436
ATOM    436  CD  GLU B  25     -14.756  -1.584 -26.313  0.00  0.00    +0.000 C 
ATOM    437  OE1 GLU B  25     -14.489  -1.052 -27.421  0.00  0.00    +0.000 OA
BRANCH 436 438
ATOM    438  OE2 GLU B  25     -15.210  -2.753 -26.223  0.00  0.00    +0.000 OA
ATOM    439  H   GLU B  25     -15.398  -3.119 -25.381  0.00  0.00    +0.000 HD
ENDBRANCH 436 438
ENDBRANCH 435 436
ENDBRANCH 434 435
ENDBRANCH 159 434
ENDBRANCH 155 159
ENDBRANCH 154 157
BRANCH 154 440
ATOM    440  CB  MET B  26      -9.939  -0.138 -21.194  0.00  0.00    +0.000 C 
BRANCH 440 441
ATOM    441  CG  MET B  26      -8.630   0.729 -20.923  0.00  0.00    +0.000 C 
BRANCH 441 442
ATOM    442  SD  MET B  26      -8.763   2.251 -21.885  0.00  0.00    +0.000 S 
ATOM    443  CE  MET B  26      -9.868   3.129 -20.721  0.00  0.00    +0.000 C 
ENDBRANCH 441 442
ENDBRANCH 440 441
ENDBRANCH 154 440
ENDBRANCH 150 154
ENDBRANCH 149 152
BRANCH 149 444
ATOM    444  CB  SER B  27      -8.049  -5.007 -22.282  0.00  0.00    +0.000 C 
BRANCH 444 445
ATOM    445  OG  SER B  27      -8.174  -4.938 -20.854  0.00  0.00    +0.000 OA
ATOM    446  H   SER B  27      -7.350  -4.595 -20.474  0.00  0.00    +0.000 HD
ENDBRANCH 444 445
ENDBRANCH 149 444
ENDBRANCH 145 149
ENDBRANCH 144 147
BRANCH 144 447
ATOM    447  CB  SER B  28     -10.047  -4.775 -27.035  0.00  0.00    +0.000 C 
BRANCH 447 448
ATOM    448  OG  SER B  28     -11.079  -3.823 -27.217  0.00  0.00    +0.000 OA
ATOM    449  H   SER B  28     -10.813  -3.183 -27.896  0.00  0.00    +0.000 HD
ENDBRANCH 447 448
ENDBRANCH 144 447
ENDBRANCH 140 144
ENDBRANCH 139 142
BRANCH 139 450
ATOM    450  CB  GLN B  29      -9.919   0.497 -27.317  0.00  0.00    +0.000 C 
BRANCH 450 451
ATOM    451  CG  GLN B  29     -11.259  -0.014 -27.820  0.00  0.00    +0.000 C 
BRANCH 451 452
ATOM    452  CD  GLN B  29     -12.415   0.791 -27.258  0.00  0.00    +0.000 C 
ATOM    453  OE1 GLN B  29     -12.352   1.313 -26.129  0.00  0.00    +0.000 OA
ATOM    454  NE2 GLN B  29     -13.479   0.902 -28.042  0.00  0.00    +0.000 N 
ATOM    455  H   GLN B  29     -13.485   0.472 -28.928  0.00  0.00    +0.000 HD
ATOM    456  H   GLN B  29     -14.263   1.414 -27.738  0.00  0.00    +0.000 HD
ENDBRANCH 451 452
ENDBRANCH 450 451
ENDBRANCH 139 450
ENDBRANCH 135 139
ENDBRANCH 134 137
BRANCH 134 457
ATOM    457  CB  LEU B  30      -4.745   0.467 -24.956  0.00  0.00    +0.000 C 
BRANCH 457 458
ATOM    458  CG  LEU B  30      -5.260   1.068 -23.670  0.00  0.00    +0.000 C 
ATOM    459  CD2 LEU B  30      -4.613   0.456 -22.451  0.00  0.00    +0.000 C 
ATOM    460  CD1 LEU B  30      -5.028   2.561 -23.710  0.00  0.00    +0.000 C 
ENDBRANCH 457 458
ENDBRANCH 134 457
ENDBRANCH 130 134
ENDBRANCH 129 132
BRANCH 129 461
ATOM    461  CB  HIS B  31      -3.869   0.703 -30.358  0.00  0.00    +0.000 C 
BRANCH 461 462
ATOM    462  CG  HIS B  31      -5.101  -0.071 -30.694  0.00  0.00    +0.000 C 
ATOM    463  ND1 HIS B  31      -5.216  -1.428 -30.451  0.00  0.00    +0.000 N 
ATOM    464  CD2 HIS B  31      -6.279   0.319 -31.237  0.00  0.00    +0.000 C 
ATOM    465  CE1 HIS B  31      -6.405  -1.844 -30.853  0.00  0.00    +0.000 C 
ATOM    466  NE2 HIS B  31      -7.071  -0.802 -31.327  0.00  0.00    +0.000 NA
ATOM    467  H   HIS B  31      -4.489  -1.929 -30.962  0.00  0.00    +0.000 HD
ATOM    468  H   HIS B  31      -5.111  -1.607 -29.452  0.00  0.00    +0.000 HD
ENDBRANCH 461 462
ENDBRANCH 129 461
ENDBRANCH 125 129
ENDBRANCH 124 127
BRANCH 124 469
ATOM    469  CB  LEU B  32       0.365   0.917 -25.899  0.00  0.00    +0.000 C 
BRANCH 469 470
ATOM    470  CG  LEU B  32      -0.646   1.113 -24.813  0.00  0.00    +0.000 C 
ATOM    471  CD2 LEU B  32      -0.091   0.428 -23.522  0.00  0.00    +0.000 C 
ATOM    472  CD1 LEU B  32      -0.947   2.607 -24.561  0.00  0.00    +0.000 C 
ENDBRANCH 469 470
ENDBRANCH 124 469
ENDBRANCH 120 124
ENDBRANCH 119 122
BRANCH 119 473
ATOM    473  CB  THR B  33       3.413   2.904 -30.220  0.00  0.00    +0.000 C 
ATOM    474  CG2 THR B  33       2.307   2.378 -31.117  0.00  0.00    +0.000 C 
BRANCH 473 475
ATOM    475  OG1 THR B  33       3.329   4.353 -30.109  0.00  0.00    +0.000 OA
ATOM    476  H   THR B  33       2.483   4.598 -29.702  0.00  0.00    +0.000 HD
ENDBRANCH 473 475
ENDBRANCH 119 473
ENDBRANCH 112 119
ENDBRANCH 108 115
ENDBRANCH 107 110
BRANCH 107 477
ATOM    477  CB  PHE B  35       6.110   7.817 -29.638  0.00  0.00    +0.000 C 
BRANCH 477 478
ATOM    478  CG  PHE B  35       7.505   7.401 -30.101  0.00  0.00    +0.000 A 
ATOM    479  CD2 PHE B  35       8.621   7.632 -29.285  0.00  0.00    +0.000 A 
ATOM    480  CD1 PHE B  35       7.691   6.726 -31.311  0.00  0.00    +0.000 A 
ATOM    481  CE2 PHE B  35       9.887   7.232 -29.680  0.00  0.00    +0.000 A 
ATOM    482  CE1 PHE B  35       8.966   6.327 -31.715  0.00  0.00    +0.000 A 
ATOM    483  CZ  PHE B  35      10.058   6.578 -30.893  0.00  0.00    +0.000 A 
ENDBRANCH 477 478
ENDBRANCH 107 477
ENDBRANCH 103 107
ENDBRANCH 102 105
BRANCH 102 484
ATOM    484  CB  THR B  36       0.991   6.785 -28.595  0.00  0.00    +0.000 C 
ATOM    485  CG2 THR B  36       1.333   7.249 -30.036  0.00  0.00    +0.000 C 
BRANCH 484 486
ATOM    486  OG1 THR B  36       0.961   5.319 -28.495  0.00  0.00    +0.000 OA
ATOM    487  H   THR B  36       1.836   4.962 -28.713  0.00  0.00    +0.000 HD
ENDBRANCH 484 486
ENDBRANCH 102 484
ENDBRANCH  98 102
ENDBRANCH  96 100
ENDBRANCH  92  96
ENDBRANCH  91  94
BRANCH  91 488
ATOM    488  CB  ARG B  38       3.247   9.667 -21.974  0.00  0.00    +0.000 C 
BRANCH 488 489
ATOM    489  CG  ARG B  38       3.032  10.874 -21.078  0.00  0.00    +0.000 C 
BRANCH 489 490
ATOM    490  CD  ARG B  38       3.010  10.530 -19.657  0.00  0.00    +0.000 C 
BRANCH 490 491
ATOM    491  NE  ARG B  38       2.897  11.752 -18.798  0.00  0.00    +0.000 N 
ATOM    492  CZ  ARG B  38       1.762  12.252 -18.303  0.00  0.00    +0.000 C 
ATOM    493  NH1 ARG B  38       0.594  11.685 -18.591  0.00  0.00    +0.000 NA
ATOM    494  NH2 ARG B  38       1.788  13.335 -17.519  0.00  0.00    +0.000 N 
ATOM    495  H   ARG B  38       3.731  12.227 -18.580  0.00  0.00    +0.000 HD
ATOM    496  H   ARG B  38       0.563  10.887 -19.167  0.00  0.00    +0.000 HD
ATOM    497  H   ARG B  38      -0.239  12.063 -18.228  0.00  0.00    +0.000 HD
ATOM    498  H   ARG B  38       0.201  11.281 -17.784  0.00  0.00    +0.000 HD
ATOM    499  H   ARG B  38       2.647  13.763 -17.299  0.00  0.00    +0.000 HD
ATOM    500  H   ARG B  38       0.948  13.704 -17.162  0.00  0.00    +0.000 HD
ENDBRANCH 490 491
ENDBRANCH 489 490
ENDBRANCH 488 489
ENDBRANCH  91 488
ENDBRANCH  87  91
ENDBRANCH  86  89
ENDBRANCH  82  86
ENDBRANCH  81  84
BRANCH  81 501
ATOM    501  CB  ARG B  40      -2.697   6.004 -24.306  0.00  0.00    +0.000 C 
BRANCH 501 502
ATOM    502  CG  ARG B  40      -2.363   5.888 -25.787  0.00  0.00    +0.000 C 
BRANCH 502 503
ATOM    503  CD  ARG B  40      -3.435   6.273 -26.739  0.00  0.00    +0.000 C 
BRANCH 503 504
ATOM    504  NE  ARG B  40      -2.968   5.926 -28.107  0.00  0.00    +0.000 N 
ATOM    505  CZ  ARG B  40      -3.166   6.675 -29.202  0.00  0.00    +0.000 C 
ATOM    506  NH2 ARG B  40      -3.808   7.838 -29.114  0.00  0.00    +0.000 N 
ATOM    507  NH1 ARG B  40      -2.730   6.269 -30.386  0.00  0.00    +0.000 NA
ATOM    508  H   ARG B  40      -2.475   5.081 -28.218  0.00  0.00    +0.000 HD
ATOM    509  H   ARG B  40      -3.951   8.384 -29.921  0.00  0.00    +0.000 HD
ATOM    510  H   ARG B  40      -4.140   8.152 -28.242  0.00  0.00    +0.000 HD
ATOM    511  H   ARG B  40      -2.880   6.826 -31.184  0.00  0.00    +0.000 HD
ATOM    512  H   ARG B  40      -2.256   5.410 -30.468  0.00  0.00    +0.000 HD
ATOM    513  H   ARG B  40      -2.115   5.600 -30.766  0.00  0.00    +0.000 HD
ENDBRANCH 503 504
ENDBRANCH 502 503
ENDBRANCH 501 502
ENDBRANCH  81 501
ENDBRANCH  77  81
ENDBRANCH  76  79
BRANCH  76 514
ATOM    514  CB  PHE B  41      -1.035   7.347 -19.400  0.00  0.00    +0.000 C 
BRANCH 514 515
ATOM    515  CG  PHE B  41      -1.069   7.315 -17.879  0.00  0.00    +0.000 A 
ATOM    516  CD1 PHE B  41      -1.306   6.127 -17.207  0.00  0.00    +0.000 A 
ATOM    517  CD2 PHE B  41      -0.872   8.460 -17.155  0.00  0.00    +0.000 A 
ATOM    518  CE1 PHE B  41      -1.367   6.121 -15.784  0.00  0.00    +0.000 A 
ATOM    519  CE2 PHE B  41      -0.916   8.418 -15.750  0.00  0.00    +0.000 A 
ATOM    520  CZ  PHE B  41      -1.110   7.261 -15.127  0.00  0.00    +0.000 A 
ENDBRANCH 514 515
ENDBRANCH  76 514
ENDBRANCH  72  76
ENDBRANCH  70  74
ENDBRANCH  66  70
ENDBRANCH  65  68
BRANCH  65 521
ATOM    521  CB  THR B  43      -6.122  10.578 -23.445  0.00  0.00    +0.000 C 
ATOM    522  CG2 THR B  43      -7.523  10.734 -24.043  0.00  0.00    +0.000 C 
BRANCH 521 523
ATOM    523  OG1 THR B  43      -5.208  11.359 -24.258  0.00  0.00    +0.000 OA
ATOM    524  H   THR B  43      -5.480  12.290 -24.247  0.00  0.00    +0.000 HD
ENDBRANCH 521 523
ENDBRANCH  65 521
ENDBRANCH  61  65
ENDBRANCH  60  63
BRANCH  60 525
ATOM    525  CB  VAL B  44      -7.442   6.947 -19.962  0.00  0.00    +0.000 C 
ATOM    526  CG2 VAL B  44      -8.295   6.173 -18.850  0.00  0.00    +0.000 C 
ATOM    527  CG1 VAL B  44      -7.622   6.350 -21.391  0.00  0.00    +0.000 C 
ENDBRANCH  60 525
ENDBRANCH  56  60
ENDBRANCH  55  58
BRANCH  55 528
ATOM    528  CB  VAL B  45      -5.456  10.004 -16.033  0.00  0.00    +0.000 C 
ATOM    529  CG2 VAL B  45      -5.493  10.700 -14.768  0.00  0.00    +0.000 C 
ATOM    530  CG1 VAL B  45      -4.803   8.578 -15.845  0.00  0.00    +0.000 C 
ENDBRANCH  55 528
ENDBRANCH  51  55
ENDBRANCH  50  53
BRANCH  50 531
ATOM    531  CB  GLU B  46      -7.824  14.222 -18.692  0.00  0.00    +0.000 C 
BRANCH 531 532
ATOM    532  CG  GLU B  46      -8.713  15.467 -18.691  0.00  0.00    +0.000 C 
BRANCH 532 533
ATOM    533  CD  GLU B  46      -8.374  16.386 -19.796  0.00  0.00    +0.000 C 
ATOM    534  OE1 GLU B  46      -7.914  15.898 -20.855  0.00  0.00    +0.000 OA
BRANCH 533 535
ATOM    535  OE2 GLU B  46      -8.634  17.613 -19.648  0.00  0.00    +0.000 OA
ATOM    536  H   GLU B  46      -8.977  17.924 -18.833  0.00  0.00    +0.000 HD
ENDBRANCH 533 535
ENDBRANCH 532 533
ENDBRANCH 531 532
ENDBRANCH  50 531
ENDBRANCH  46  50
ENDBRANCH  45  48
BRANCH  45 537
ATOM    537  CB  GLU B  47     -11.822  10.831 -19.789  0.00  0.00    +0.000 C 
BRANCH 537 538
ATOM    538  CG  GLU B  47     -13.253  10.469 -20.047  0.00  0.00    +0.000 C 
BRANCH 538 539
ATOM    539  CD  GLU B  47     -14.106  11.657 -20.533  0.00  0.00    +0.000 C 
ATOM    540  OE1 GLU B  47     -13.556  12.657 -21.072  0.00  0.00    +0.000 OA
BRANCH 539 541
ATOM    541  OE2 GLU B  47     -15.354  11.586 -20.369  0.00  0.00    +0.000 OA
ATOM    542  H   GLU B  47     -15.731  10.829 -19.965  0.00  0.00    +0.000 HD
ENDBRANCH 539 541
ENDBRANCH 538 539
ENDBRANCH 537 538
ENDBRANCH  45 537
ENDBRANCH  41  45
ENDBRANCH  40  43
BRANCH  40 543
ATOM    543  CB  LEU B  48     -10.596   8.578 -15.088  0.00  0.00    +0.000 C 
BRANCH 543 544
ATOM    544  CG  LEU B  48     -10.812   7.805 -13.847  0.00  0.00    +0.000 C 
ATOM    545  CD1 LEU B  48     -12.060   6.821 -13.954  0.00  0.00    +0.000 C 
ATOM    546  CD2 LEU B  48      -9.493   6.990 -13.500  0.00  0.00    +0.000 C 
ENDBRANCH 543 544
ENDBRANCH  40 543
ENDBRANCH  36  40
ENDBRANCH  35  38
BRANCH  35 547
ATOM    547  CB  PHE B  49     -10.046  12.833 -12.502  0.00  0.00    +0.000 C 
BRANCH 547 548
ATOM    548  CG  PHE B  49      -9.468  11.642 -11.772  0.00  0.00    +0.000 A 
ATOM    549  CD2 PHE B  49     -10.089  11.040 -10.654  0.00  0.00    +0.000 A 
ATOM    550  CD1 PHE B  49      -8.308  11.057 -12.244  0.00  0.00    +0.000 A 
ATOM    551  CE2 PHE B  49      -9.508   9.937 -10.049  0.00  0.00    +0.000 A 
ATOM    552  CE1 PHE B  49      -7.724   9.904 -11.574  0.00  0.00    +0.000 A 
ATOM    553  CZ  PHE B  49      -8.337   9.368 -10.523  0.00  0.00    +0.000 A 
ENDBRANCH 547 548
ENDBRANCH  35 547
ENDBRANCH  31  35
ENDBRANCH  30  33
BRANCH  30 554
ATOM    554  CB  ARG B  50     -13.759  14.957 -16.686  0.00  0.00    +0.000 C 
BRANCH 554 555
ATOM    555  CG  ARG B  50     -13.953  16.228 -17.497  0.00  0.00    +0.000 C 
BRANCH 555 556
ATOM    556  CD  ARG B  50     -14.516  15.885 -18.858  0.00  0.00    +0.000 C 
BRANCH 556 557
ATOM    557  NE  ARG B  50     -15.783  15.175 -18.732  0.00  0.00    +0.000 N 
ATOM    558  CZ  ARG B  50     -16.380  14.535 -19.736  0.00  0.00    +0.000 C 
ATOM    559  NH2 ARG B  50     -17.546  13.914 -19.531  0.00  0.00    +0.000 N 
ATOM    560  NH1 ARG B  50     -15.805  14.504 -20.947  0.00  0.00    +0.000 NA
ATOM    561  H   ARG B  50     -16.224  15.168 -17.852  0.00  0.00    +0.000 HD
ATOM    562  H   ARG B  50     -17.989  13.441 -20.272  0.00  0.00    +0.000 HD
ATOM    563  H   ARG B  50     -17.962  13.930 -18.639  0.00  0.00    +0.000 HD
ATOM    564  H   ARG B  50     -16.246  14.031 -21.689  0.00  0.00    +0.000 HD
ATOM    565  H   ARG B  50     -14.942  14.954 -21.094  0.00  0.00    +0.000 HD
ATOM    566  H   ARG B  50     -16.345  14.047 -21.631  0.00  0.00    +0.000 HD
ENDBRANCH 556 557
ENDBRANCH 555 556
ENDBRANCH 554 555
ENDBRANCH  30 554
ENDBRANCH  26  30
ENDBRANCH  25  28
BRANCH  25 567
ATOM    567  CB  ASP B  51     -17.382  14.421 -13.119  0.00  0.00    +0.000 C 
BRANCH 567 568
ATOM    568  CG  ASP B  51     -18.016  14.634 -14.505  0.00  0.00    +0.000 C 
ATOM    569  OD1 ASP B  51     -18.593  13.664 -15.045  0.00  0.00    +0.000 OA
BRANCH 568 570
ATOM    570  OD2 ASP B  51     -17.933  15.758 -15.042  0.00  0.00    +0.000 OA
ATOM    571  H   ASP B  51     -17.491  16.457 -14.601  0.00  0.00    +0.000 HD
ENDBRANCH 568 570
ENDBRANCH 567 568
ENDBRANCH  25 567
ENDBRANCH  21  25
ENDBRANCH  20  23
ENDBRANCH  16  20
ENDBRANCH  15  18
BRANCH  15 572
ATOM    572  CB  VAL B  53     -10.716  13.109  -7.068  0.00  0.00    +0.000 C 
ATOM    573  CG2 VAL B  53     -10.087  11.946  -6.344  0.00  0.00    +0.000 C 
ATOM    574  CG1 VAL B  53      -9.819  13.679  -8.072  0.00  0.00    +0.000 C 
ENDBRANCH  15 572
ENDBRANCH  11  15
ENDBRANCH  10  13
BRANCH  10 575
ATOM    575  CB  ASN B  54     -15.107   9.868  -5.423  0.00  0.00    +0.000 C 
BRANCH 575 576
ATOM    576  CG  ASN B  54     -15.548   9.074  -6.647  0.00  0.00    +0.000 C 
ATOM    577  OD1 ASN B  54     -14.831   8.207  -7.129  0.00  0.00    +0.000 OA
ATOM    578  ND2 ASN B  54     -16.774   9.335  -7.142  0.00  0.00    +0.000 N 
ATOM    579  H   ASN B  54     -17.100   8.846  -7.932  0.00  0.00    +0.000 HD
ATOM    580  H   ASN B  54     -17.343  10.015  -6.714  0.00  0.00    +0.000 HD
ENDBRANCH 575 576
ENDBRANCH  10 575
ENDBRANCH   6  10
ENDBRANCH   5   8
BRANCH   5 581
ATOM    581  CB  TRP B  55     -12.497   6.198  -2.635  0.00  0.00    +0.000 C 
BRANCH 581 582
ATOM    582  CG  TRP B  55     -12.020   7.025  -1.510  0.00  0.00    +0.000 A 
ATOM    583  CD1 TRP B  55     -12.815   7.634  -0.493  0.00  0.00    +0.000 A 
ATOM    584  CD2 TRP B  55     -10.659   7.341  -1.164  0.00  0.00    +0.000 A 
ATOM    585  NE1 TRP B  55     -11.998   8.323   0.428  0.00  0.00    +0.000 N 
ATOM    586  CE2 TRP B  55     -10.693   8.129   0.036  0.00  0.00    +0.000 A 
ATOM    587  CE3 TRP B  55      -9.402   6.983  -1.708  0.00  0.00    +0.000 A 
ATOM    588  CZ2 TRP B  55      -9.519   8.618   0.648  0.00  0.00    +0.000 A 
ATOM    589  CZ3 TRP B  55      -8.193   7.474  -1.065  0.00  0.00    +0.000 A 
ATOM    590  CH2 TRP B  55      -8.290   8.297   0.081  0.00  0.00    +0.000 A 
ATOM    591  H   TRP B  55     -12.304   8.845   1.205  0.00  0.00    +0.000 HD
ENDBRANCH 581 582
ENDBRANCH   5 581
ENDBRANCH   1   5
BRANCH   3 592
ATOM    592  CA  GLY B  56     -13.867   4.696  -6.654  0.00  0.00    +0.000 C 
BRANCH 592 593
ATOM    593  C   GLY B  56     -13.123   5.038  -7.942  0.00  0.00    +0.000 C 
ATOM    594  O   GLY B  56     -12.688   4.126  -8.675  0.00  0.00    +0.000 OA
ATOM    595  N   ARG B  57     -13.083   6.321  -8.287  0.00  0.00    +0.000 N 
ATOM    596  H   ARG B  57     -13.586   6.991  -7.770  0.00  0.00    +0.000 HD
BRANCH 595 597
ATOM    597  CA  ARG B  57     -12.280   6.727  -9.448  0.00  0.00    +0.000 C 
BRANCH 597 598
ATOM    598  C   ARG B  57     -10.807   6.514  -9.197  0.00  0.00    +0.000 C 
ATOM    599  O   ARG B  57     -10.096   6.223 -10.138  0.00  0.00    +0.000 OA
ATOM    600  N   ILE B  58     -10.326   6.669  -7.965  0.00  0.00    +0.000 N 
ATOM    601  H   ILE B  58     -10.901   7.015  -7.245  0.00  0.00    +0.000 HD
BRANCH 600 602
ATOM    602  CA  ILE B  58      -8.924   6.317  -7.695  0.00  0.00    +0.000 C 
BRANCH 602 603
ATOM    603  C   ILE B  58      -8.704   4.822  -7.883  0.00  0.00    +0.000 C 
ATOM    604  O   ILE B  58      -7.700   4.405  -8.471  0.00  0.00    +0.000 OA
ATOM    605  N   VAL B  59      -9.658   3.984  -7.450  0.00  0.00    +0.000 N 
ATOM    606  H   VAL B  59     -10.456   4.320  -6.981  0.00  0.00    +0.000 HD
BRANCH 605 607
ATOM    607  CA  VAL B  59      -9.473   2.552  -7.699  0.00  0.00    +0.000 C 
BRANCH 607 608
ATOM    608  C   VAL B  59      -9.462   2.297  -9.206  0.00  0.00    +0.000 C 
ATOM    609  O   VAL B  59      -8.678   1.480  -9.715  0.00  0.00    +0.000 OA
ATOM    610  N   ALA B  60     -10.353   2.964  -9.927  0.00  0.00    +0.000 N 
ATOM    611  H   ALA B  60     -10.986   3.575  -9.485  0.00  0.00    +0.000 HD
BRANCH 610 612
ATOM    612  CA  ALA B  60     -10.395   2.794 -11.369  0.00  0.00    +0.000 C 
ATOM    613  CB  ALA B  60     -11.497   3.617 -12.019  0.00  0.00    +0.000 C 
BRANCH 612 614
ATOM    614  C   ALA B  60      -9.070   3.208 -11.993  0.00  0.00    +0.000 C 
ATOM    615  O   ALA B  60      -8.619   2.560 -12.970  0.00  0.00    +0.000 OA
ATOM    616  N   PHE B  61      -8.431   4.257 -11.436  0.00  0.00    +0.000 N 
ATOM    617  H   PHE B  61      -8.843   4.749 -10.689  0.00  0.00    +0.000 HD
BRANCH 616 618
ATOM    618  CA  PHE B  61      -7.129   4.657 -11.946  0.00  0.00    +0.000 C 
BRANCH 618 619
ATOM    619  C   PHE B  61      -6.096   3.571 -11.743  0.00  0.00    +0.000 C 
ATOM    620  O   PHE B  61      -5.275   3.335 -12.646  0.00  0.00    +0.000 OA
ATOM    621  N   PHE B  62      -6.103   2.905 -10.596  0.00  0.00    +0.000 N 
ATOM    622  H   PHE B  62      -6.751   3.134  -9.891  0.00  0.00    +0.000 HD
BRANCH 621 623
ATOM    623  CA  PHE B  62      -5.142   1.833 -10.394  0.00  0.00    +0.000 C 
BRANCH 623 624
ATOM    624  C   PHE B  62      -5.411   0.696 -11.378  0.00  0.00    +0.000 C 
ATOM    625  O   PHE B  62      -4.497   0.171 -11.981  0.00  0.00    +0.000 OA
ATOM    626  N   GLU B  63      -6.676   0.327 -11.543  0.00  0.00    +0.000 N 
ATOM    627  H   GLU B  63      -7.392   0.782 -11.043  0.00  0.00    +0.000 HD
BRANCH 626 628
ATOM    628  CA  GLU B  63      -7.002  -0.752 -12.465  0.00  0.00    +0.000 C 
BRANCH 628 629
ATOM    629  C   GLU B  63      -6.591  -0.373 -13.880  0.00  0.00    +0.000 C 
ATOM    630  O   GLU B  63      -6.105  -1.219 -14.618  0.00  0.00    +0.000 OA
ATOM    631  N   PHE B  64      -6.822   0.881 -14.269  0.00  0.00    +0.000 N 
ATOM    632  H   PHE B  64      -7.283   1.512 -13.671  0.00  0.00    +0.000 HD
BRANCH 631 633
ATOM    633  CA  PHE B  64      -6.377   1.308 -15.606  0.00  0.00    +0.000 C 
BRANCH 633 634
ATOM    634  C   PHE B  64      -4.865   1.184 -15.746  0.00  0.00    +0.000 C 
ATOM    635  O   PHE B  64      -4.367   0.733 -16.802  0.00  0.00    +0.000 OA
ATOM    636  N   GLY B  65      -4.126   1.603 -14.711  0.00  0.00    +0.000 N 
ATOM    637  H   GLY B  65      -4.553   2.006 -13.921  0.00  0.00    +0.000 HD
BRANCH 636 638
ATOM    638  CA  GLY B  65      -2.672   1.451 -14.775  0.00  0.00    +0.000 C 
BRANCH 638 639
ATOM    639  C   GLY B  65      -2.305  -0.009 -14.966  0.00  0.00    +0.000 C 
ATOM    640  O   GLY B  65      -1.401  -0.355 -15.743  0.00  0.00    +0.000 OA
ATOM    641  N   GLY B  66      -3.030  -0.912 -14.273  0.00  0.00    +0.000 N 
ATOM    642  H   GLY B  66      -3.718  -0.618 -13.633  0.00  0.00    +0.000 HD
BRANCH 641 643
ATOM    643  CA  GLY B  66      -2.772  -2.348 -14.493  0.00  0.00    +0.000 C 
BRANCH 643 644
ATOM    644  C   GLY B  66      -3.042  -2.815 -15.938  0.00  0.00    +0.000 C 
ATOM    645  O   GLY B  66      -2.270  -3.586 -16.515  0.00  0.00    +0.000 OA
ATOM    646  N   VAL B  67      -4.128  -2.329 -16.542  0.00  0.00    +0.000 N 
ATOM    647  H   VAL B  67      -4.745  -1.751 -16.037  0.00  0.00    +0.000 HD
BRANCH 646 648
ATOM    648  CA  VAL B  67      -4.419  -2.641 -17.946  0.00  0.00    +0.000 C 
BRANCH 648 649
ATOM    649  C   VAL B  67      -3.326  -2.099 -18.865  0.00  0.00    +0.000 C 
ATOM    650  O   VAL B  67      -2.884  -2.789 -19.805  0.00  0.00    +0.000 OA
ATOM    651  N   MET B  68      -2.874  -0.837 -18.638  0.00  0.00    +0.000 N 
ATOM    652  H   MET B  68      -3.282  -0.290 -17.929  0.00  0.00    +0.000 HD
BRANCH 651 653
ATOM    653  CA  MET B  68      -1.783  -0.290 -19.444  0.00  0.00    +0.000 C 
BRANCH 653 654
ATOM    654  C   MET B  68      -0.554  -1.174 -19.331  0.00  0.00    +0.000 C 
ATOM    655  O   MET B  68       0.160  -1.385 -20.337  0.00  0.00    +0.000 OA
ATOM    656  N   CYS B  69      -0.267  -1.678 -18.111  0.00  0.00    +0.000 N 
ATOM    657  H   CYS B  69      -0.839  -1.497 -17.330  0.00  0.00    +0.000 HD
BRANCH 656 658
ATOM    658  CA  CYS B  69       0.937  -2.508 -18.006  0.00  0.00    +0.000 C 
BRANCH 658 659
ATOM    659  C   CYS B  69       0.768  -3.831 -18.735  0.00  0.00    +0.000 C 
ATOM    660  O   CYS B  69       1.677  -4.303 -19.428  0.00  0.00    +0.000 OA
ATOM    661  N   VAL B  70      -0.372  -4.485 -18.554  0.00  0.00    +0.000 N 
ATOM    662  H   VAL B  70      -1.053  -4.138 -17.934  0.00  0.00    +0.000 HD
BRANCH 661 663
ATOM    663  CA  VAL B  70      -0.603  -5.735 -19.293  0.00  0.00    +0.000 C 
BRANCH 663 664
ATOM    664  C   VAL B  70      -0.572  -5.525 -20.801  0.00  0.00    +0.000 C 
ATOM    665  O   VAL B  70       0.062  -6.271 -21.534  0.00  0.00    +0.000 OA
ATOM    666  N   GLU B  71      -1.239  -4.491 -21.276  0.00  0.00    +0.000 N 
ATOM    667  H   GLU B  71      -1.723  -3.880 -20.675  0.00  0.00    +0.000 HD
BRANCH 666 668
ATOM    668  CA  GLU B  71      -1.238  -4.283 -22.705  0.00  0.00    +0.000 C 
BRANCH 668 669
ATOM    669  C   GLU B  71       0.162  -3.939 -23.224  0.00  0.00    +0.000 C 
ATOM    670  O   GLU B  71       0.477  -4.235 -24.363  0.00  0.00    +0.000 OA
ATOM    671  N   SER B  72       0.998  -3.317 -22.398  0.00  0.00    +0.000 N 
ATOM    672  H   SER B  72       0.695  -3.047 -21.501  0.00  0.00    +0.000 HD
BRANCH 671 673
ATOM    673  CA  SER B  72       2.372  -3.034 -22.825  0.00  0.00    +0.000 C 
BRANCH 673 674
ATOM    674  C   SER B  72       3.110  -4.325 -23.081  0.00  0.00    +0.000 C 
ATOM    675  O   SER B  72       3.775  -4.470 -24.099  0.00  0.00    +0.000 OA
ATOM    676  N   VAL B  73       3.005  -5.281 -22.176  0.00  0.00    +0.000 N 
ATOM    677  H   VAL B  73       2.483  -5.141 -21.353  0.00  0.00    +0.000 HD
BRANCH 676 678
ATOM    678  CA  VAL B  73       3.698  -6.582 -22.432  0.00  0.00    +0.000 C 
BRANCH 678 679
ATOM    679  C   VAL B  73       3.100  -7.280 -23.671  0.00  0.00    +0.000 C 
ATOM    680  O   VAL B  73       3.815  -7.841 -24.508  0.00  0.00    +0.000 OA
ATOM    681  N   ASN B  74       1.759  -7.259 -23.797  0.00  0.00    +0.000 N 
ATOM    682  H   ASN B  74       1.205  -6.828 -23.107  0.00  0.00    +0.000 HD
BRANCH 681 683
ATOM    683  CA  ASN B  74       1.143  -7.866 -24.938  0.00  0.00    +0.000 C 
BRANCH 683 684
ATOM    684  C   ASN B  74       1.642  -7.284 -26.242  0.00  0.00    +0.000 C 
ATOM    685  O   ASN B  74       1.679  -8.005 -27.239  0.00  0.00    +0.000 OA
ATOM    686  N   ARG B  75       2.048  -6.014 -26.247  0.00  0.00    +0.000 N 
ATOM    687  H   ARG B  75       1.988  -5.494 -25.413  0.00  0.00    +0.000 HD
BRANCH 686 688
ATOM    688  CA  ARG B  75       2.577  -5.368 -27.442  0.00  0.00    +0.000 C 
BRANCH 688 689
ATOM    689  C   ARG B  75       4.100  -5.464 -27.475  0.00  0.00    +0.000 C 
ATOM    690  O   ARG B  75       4.725  -4.769 -28.280  0.00  0.00    +0.000 OA
ATOM    691  N   GLU B  76       4.696  -6.334 -26.634  0.00  0.00    +0.000 N 
ATOM    692  H   GLU B  76       4.141  -6.841 -25.998  0.00  0.00    +0.000 HD
BRANCH 691 693
ATOM    693  CA  GLU B  76       6.152  -6.548 -26.639  0.00  0.00    +0.000 C 
BRANCH 693 694
ATOM    694  C   GLU B  76       6.884  -5.237 -26.317  0.00  0.00    +0.000 C 
ATOM    695  O   GLU B  76       7.899  -4.921 -26.931  0.00  0.00    +0.000 OA
ATOM    696  N   MET B  77       6.320  -4.473 -25.400  0.00  0.00    +0.000 N 
ATOM    697  H   MET B  77       5.454  -4.762 -25.032  0.00  0.00    +0.000 HD
BRANCH 696 698
ATOM    698  CA  MET B  77       6.893  -3.226 -24.893  0.00  0.00    +0.000 C 
BRANCH 698 699
ATOM    699  C   MET B  77       7.005  -3.277 -23.376  0.00  0.00    +0.000 C 
ATOM    700  O   MET B  77       6.619  -2.324 -22.702  0.00  0.00    +0.000 OA
ATOM    701  N   UNK B  78       7.581  -4.364 -22.830  0.00  0.00    +0.000 N 
ATOM    702  H   UNK B  78       7.912  -5.093 -23.403  0.00  0.00    +0.000 HD
BRANCH 701 703
ATOM    703  C   UNK B  78       7.710  -4.451 -21.373  0.00  0.00    +0.000 C 
BRANCH 703 704
ATOM    704  C   UNK B  78       8.386  -3.257 -20.719  0.00  0.00    +0.000 C 
ATOM    705  O   UNK B  78       8.016  -2.927 -19.577  0.00  0.00    +0.000 OA
ATOM    706  N   UNK B  78       9.364  -2.597 -21.325  0.00  0.00    +0.000 N 
ATOM    707  C   UNK B  78       9.990  -1.464 -20.611  0.00  0.00    +0.000 C 
ATOM    708  C   UNK B  78      10.996  -0.941 -21.641  0.00  0.00    +0.000 C 
ATOM    709  C   UNK B  78      11.340  -2.091 -22.390  0.00  0.00    +0.000 C 
ATOM    710  C   UNK B  78      10.116  -2.929 -22.557  0.00  0.00    +0.000 C 
BRANCH 707 711
ATOM    711  C   UNK B  78       8.990  -0.387 -20.214  0.00  0.00    +0.000 C 
ATOM    712  O   UNK B  78       9.218   0.391 -19.248  0.00  0.00    +0.000 OA
ATOM    713  N   UNK B  78       7.882  -0.270 -20.958  0.00  0.00    +0.000 N 
ATOM    714  H   UNK B  78       7.741  -0.856 -21.736  0.00  0.00    +0.000 HD
BRANCH 713 715
ATOM    715  C   UNK B  78       6.881   0.740 -20.601  0.00  0.00    +0.000 C 
BRANCH 715 716
ATOM    716  C   UNK B  78       6.301   0.510 -19.233  0.00  0.00    +0.000 C 
ATOM    717  O   UNK B  78       5.768   1.461 -18.682  0.00  0.00    +0.000 OA
ATOM    718  N   UNK B  78       6.335  -0.722 -18.687  0.00  0.00    +0.000 N 
ATOM    719  H   UNK B  78       6.738  -1.473 -19.180  0.00  0.00    +0.000 HD
BRANCH 718 720
ATOM    720  C   UNK B  78       5.767  -0.935 -17.353  0.00  0.00    +0.000 C 
BRANCH 720 721
ATOM    721  C   UNK B  78       6.503  -0.034 -16.348  0.00  0.00    +0.000 C 
ATOM    722  O   UNK B  78       5.869   0.589 -15.474  0.00  0.00    +0.000 OA
ATOM    723  N   UNK B  78       7.825   0.120 -16.510  0.00  0.00    +0.000 N 
ATOM    724  H   UNK B  78       8.305  -0.347 -17.232  0.00  0.00    +0.000 HD
BRANCH 723 725
ATOM    725  C   UNK B  78       8.533   1.003 -15.582  0.00  0.00    +0.000 C 
BRANCH 725 726
ATOM    726  C   UNK B  78       8.053   2.432 -15.737  0.00  0.00    +0.000 C 
ATOM    727  O   UNK B  78       7.963   3.167 -14.746  0.00  0.00    +0.000 OA
ATOM    728  N   UNK B  78       7.831   2.867 -16.981  0.00  0.00    +0.000 N 
ATOM    729  H   UNK B  78       8.006   2.281 -17.753  0.00  0.00    +0.000 HD
BRANCH 728 730
ATOM    730  C   UNK B  78       7.325   4.223 -17.181  0.00  0.00    +0.000 C 
BRANCH 730 731
ATOM    731  C   UNK B  78       5.940   4.418 -16.589  0.00  0.00    +0.000 C 
ATOM    732  O   UNK B  78       5.685   5.448 -15.961  0.00  0.00    +0.000 OA
ATOM    733  N   UNK B  78       5.043   3.466 -16.829  0.00  0.00    +0.000 N 
ATOM    734  H   UNK B  78       5.300   2.660 -17.332  0.00  0.00    +0.000 HD
BRANCH 733 735
ATOM    735  C   UNK B  78       3.683   3.622 -16.345  0.00  0.00    +0.000 C 
BRANCH 735 736
ATOM    736  C   UNK B  78       3.711   3.676 -14.809  0.00  0.00    +0.000 C 
ATOM    737  O   UNK B  78       2.984   4.463 -14.211  0.00  0.00    +0.000 OA
ATOM    738  N   UNK B  78       4.539   2.833 -14.163  0.00  0.00    +0.000 N 
ATOM    739  H   UNK B  78       5.110   2.211 -14.669  0.00  0.00    +0.000 HD
BRANCH 738 740
ATOM    740  C   UNK B  78       4.580   2.853 -12.692  0.00  0.00    +0.000 C 
ATOM    741  C   UNK B  78       5.497   1.738 -12.155  0.00  0.00    +0.000 C 
BRANCH 740 742
ATOM    742  C   UNK B  78       5.080   4.218 -12.228  0.00  0.00    +0.000 C 
ATOM    743  O   UNK B  78       4.595   4.762 -11.240  0.00  0.00    +0.000 OA
ATOM    744  N   UNK B  78       6.040   4.777 -12.947  0.00  0.00    +0.000 N 
ATOM    745  H   UNK B  78       6.454   4.291 -13.696  0.00  0.00    +0.000 HD
BRANCH 744 746
ATOM    746  C   UNK B  78       6.477   6.139 -12.605  0.00  0.00    +0.000 C 
BRANCH 746 747
ATOM    747  C   UNK B  78       5.345   7.156 -12.784  0.00  0.00    +0.000 C 
ATOM    748  O   UNK B  78       5.115   8.019 -11.949  0.00  0.00    +0.000 OA
ATOM    749  N   UNK B  78       4.622   7.082 -13.908  0.00  0.00    +0.000 N 
ATOM    750  H   UNK B  78       4.803   6.381 -14.576  0.00  0.00    +0.000 HD
BRANCH 749 751
ATOM    751  C   UNK B  78       3.537   8.081 -14.130  0.00  0.00    +0.000 C 
BRANCH 751 752
ATOM    752  C   UNK B  78       2.469   7.955 -13.073  0.00  0.00    +0.000 C 
ATOM    753  O   UNK B  78       1.914   8.977 -12.618  0.00  0.00    +0.000 OA
ATOM    754  N   UNK B  78       2.140   6.701 -12.683  0.00  0.00    +0.000 N 
ATOM    755  H   UNK B  78       2.560   5.914 -13.098  0.00  0.00    +0.000 HD
BRANCH 754 756
ATOM    756  C   UNK B  78       1.132   6.551 -11.616  0.00  0.00    +0.000 C 
BRANCH 756 757
ATOM    757  C   UNK B  78       1.611   7.151 -10.309  0.00  0.00    +0.000 C 
ATOM    758  O   UNK B  78       0.827   7.758  -9.561  0.00  0.00    +0.000 OA
ATOM    759  N   UNK B  78       2.872   6.889  -9.975  0.00  0.00    +0.000 N 
ATOM    760  H   UNK B  78       3.436   6.360 -10.584  0.00  0.00    +0.000 HD
BRANCH 759 761
ATOM    761  C   UNK B  78       3.427   7.373  -8.724  0.00  0.00    +0.000 C 
BRANCH 761 762
ATOM    762  C   UNK B  78       3.411   8.887  -8.701  0.00  0.00    +0.000 C 
ATOM    763  O   UNK B  78       2.979   9.499  -7.723  0.00  0.00    +0.000 OA
ATOM    764  N   UNK B  78       3.847   9.504  -9.788  0.00  0.00    +0.000 N 
ATOM    765  H   UNK B  78       4.156   8.985 -10.565  0.00  0.00    +0.000 HD
BRANCH 764 766
ATOM    766  C   UNK B  78       3.865  10.957  -9.821  0.00  0.00    +0.000 C 
BRANCH 766 767
ATOM    767  C   UNK B  78       2.462  11.556  -9.801  0.00  0.00    +0.000 C 
ATOM    768  O   UNK B  78       2.267  12.632  -9.269  0.00  0.00    +0.000 OA
ATOM    769  N   UNK B  78       1.498  10.848 -10.375  0.00  0.00    +0.000 N 
ATOM    770  H   UNK B  78       1.711   9.995 -10.818  0.00  0.00    +0.000 HD
BRANCH 769 771
ATOM    771  C   UNK B  78       0.129  11.332 -10.350  0.00  0.00    +0.000 C 
BRANCH 771 772
ATOM    772  C   UNK B  78      -0.340  11.376  -8.888  0.00  0.00    +0.000 C 
ATOM    773  O   UNK B  78      -1.041  12.294  -8.492  0.00  0.00    +0.000 OA
ATOM    774  N   UNK B  78      -0.085  10.306  -8.142  0.00  0.00    +0.000 N 
ATOM    775  H   UNK B  78       0.326   9.512  -8.554  0.00  0.00    +0.000 HD
BRANCH 774 776
ATOM    776  C   UNK B  78      -0.404  10.297  -6.735  0.00  0.00    +0.000 C 
BRANCH 776 777
ATOM    777  C   UNK B  78       0.337  11.388  -5.975  0.00  0.00    +0.000 C 
ATOM    778  O   UNK B  78      -0.243  12.025  -5.066  0.00  0.00    +0.000 OA
ATOM    779  N   UNK B  78       1.625  11.562  -6.276  0.00  0.00    +0.000 N 
ATOM    780  H   UNK B  78       2.007  11.059  -7.031  0.00  0.00    +0.000 HD
BRANCH 779 781
ATOM    781  C   UNK B  78       2.484  12.465  -5.531  0.00  0.00    +0.000 C 
BRANCH 781 782
ATOM    782  C   UNK B  78       2.137  13.920  -5.781  0.00  0.00    +0.000 C 
ATOM    783  O   UNK B  78       2.354  14.736  -4.885  0.00  0.00    +0.000 OA
ATOM    784  N   UNK B  78       1.603  14.266  -6.981  0.00  0.00    +0.000 N 
ATOM    785  H   UNK B  78       1.303  13.575  -7.615  0.00  0.00    +0.000 HD
BRANCH 784 786
ATOM    786  C   UNK B  78       1.481  15.704  -7.316  0.00  0.00    +0.000 C 
BRANCH 786 787
ATOM    787  C   UNK B  78       0.042  16.093  -7.637  0.00  0.00    +0.000 C 
ATOM    788  O   UNK B  78      -0.357  17.189  -7.395  0.00  0.00    +0.000 OA
ATOM    789  N   UNK B  78      -0.666  15.288  -8.362  0.00  0.00    +0.000 N 
ATOM    790  H   UNK B  78      -0.299  14.413  -8.624  0.00  0.00    +0.000 HD
BRANCH 789 791
ATOM    791  C   UNK B  78      -2.017  15.677  -8.795  0.00  0.00    +0.000 C 
BRANCH 791 792
ATOM    792  C   UNK B  78      -3.079  15.283  -7.784  0.00  0.00    +0.000 C 
ATOM    793  O   UNK B  78      -3.988  16.086  -7.554  0.00  0.00    +0.000 OA
ATOM    794  N   UNK B  78      -3.031  14.043  -7.275  0.00  0.00    +0.000 N 
ATOM    795  H   UNK B  78      -2.288  13.449  -7.530  0.00  0.00    +0.000 HD
BRANCH 794 796
ATOM    796  C   UNK B  78      -4.057  13.547  -6.348  0.00  0.00    +0.000 C 
BRANCH 796 797
ATOM    797  C   UNK B  78      -3.698  13.820  -4.895  0.00  0.00    +0.000 C 
ATOM    798  O   UNK B  78      -4.502  13.514  -4.015  0.00  0.00    +0.000 OA
ATOM    799  N   UNK B  78      -2.505  14.341  -4.610  0.00  0.00    +0.000 N 
ATOM    800  H   UNK B  78      -1.965  14.745  -5.327  0.00  0.00    +0.000 HD
BRANCH 799 801
ATOM    801  C   UNK B  78      -1.993  14.318  -3.248  0.00  0.00    +0.000 C 
BRANCH 801 802
ATOM    802  C   UNK B  78      -2.879  15.105  -2.308  0.00  0.00    +0.000 C 
ATOM    803  O   UNK B  78      -3.211  14.615  -1.231  0.00  0.00    +0.000 OA
ATOM    804  N   UNK B  78      -3.329  16.286  -2.739  0.00  0.00    +0.000 N 
ATOM    805  H   UNK B  78      -3.172  16.575  -3.667  0.00  0.00    +0.000 HD
BRANCH 804 806
ATOM    806  C   UNK B  78      -4.056  17.136  -1.810  0.00  0.00    +0.000 C 
BRANCH 806 807
ATOM    807  C   UNK B  78      -5.434  16.572  -1.570  0.00  0.00    +0.000 C 
ATOM    808  O   UNK B  78      -5.899  16.546  -0.405  0.00  0.00    +0.000 OA
ATOM    809  N   UNK B  78      -6.054  16.019  -2.623  0.00  0.00    +0.000 N 
ATOM    810  H   UNK B  78      -5.627  15.984  -3.509  0.00  0.00    +0.000 HD
BRANCH 809 811
ATOM    811  C   UNK B  78      -7.398  15.468  -2.397  0.00  0.00    +0.000 C 
BRANCH 811 812
ATOM    812  C   UNK B  78      -7.268  14.276  -1.448  0.00  0.00    +0.000 C 
ATOM    813  O   UNK B  78      -8.023  14.129  -0.473  0.00  0.00    +0.000 OA
ATOM    814  N   UNK B  78      -6.230  13.449  -1.667  0.00  0.00    +0.000 N 
ATOM    815  H   UNK B  78      -5.558  13.640  -2.361  0.00  0.00    +0.000 HD
BRANCH 814 816
ATOM    816  C   UNK B  78      -6.144  12.248  -0.825  0.00  0.00    +0.000 C 
BRANCH 816 817
ATOM    817  C   UNK B  78      -5.915  12.672   0.626  0.00  0.00    +0.000 C 
ATOM    818  O   UNK B  78      -6.583  12.184   1.561  0.00  0.00    +0.000 OA
ATOM    819  N   UNK B  78      -4.988  13.614   0.823  0.00  0.00    +0.000 N 
ATOM    820  H   UNK B  78      -4.509  14.008   0.058  0.00  0.00    +0.000 HD
BRANCH 819 821
ATOM    821  C   UNK B  78      -4.692  14.053   2.181  0.00  0.00    +0.000 C 
BRANCH 821 822
ATOM    822  C   UNK B  78      -5.912  14.671   2.846  0.00  0.00    +0.000 C 
ATOM    823  O   UNK B  78      -6.250  14.373   4.017  0.00  0.00    +0.000 OA
ATOM    824  N   UNK B  78      -6.600  15.504   2.112  0.00  0.00    +0.000 N 
ATOM    825  H   UNK B  78      -6.413  15.601   1.150  0.00  0.00    +0.000 HD
BRANCH 824 826
ATOM    826  C   UNK B  78      -7.671  16.301   2.763  0.00  0.00    +0.000 C 
BRANCH 826 827
ATOM    827  C   UNK B  78      -8.924  15.492   3.004  0.00  0.00    +0.000 C 
ATOM    828  O   UNK B  78      -9.776  15.902   3.798  0.00  0.00    +0.000 OA
ATOM    829  N   UNK B  78      -9.107  14.404   2.282  0.00  0.00    +0.000 N 
ATOM    830  H   UNK B  78      -8.466  14.174   1.571  0.00  0.00    +0.000 HD
BRANCH 829 831
ATOM    831  C   UNK B  78     -10.251  13.544   2.532  0.00  0.00    +0.000 C 
BRANCH 831 832
ATOM    832  C   UNK B  78      -9.886  12.325   3.392  0.00  0.00    +0.000 C 
ATOM    833  O   UNK B  78     -10.607  11.326   3.415  0.00  0.00    +0.000 OA
ATOM    834  N   UNK B  78      -8.786  12.411   4.149  0.00  0.00    +0.000 N 
ATOM    835  H   UNK B  78      -8.136  13.129   3.972  0.00  0.00    +0.000 HD
BRANCH 834 836
ATOM    836  C   UNK B  78      -8.527  11.473   5.224  0.00  0.00    +0.000 C 
BRANCH 836 837
ATOM    837  C   UNK B  78      -7.456  10.473   4.938  0.00  0.00    +0.000 C 
ATOM    838  O   UNK B  78      -7.198   9.615   5.781  0.00  0.00    +0.000 OA
ATOM    839  N   UNK B  78      -6.833  10.597   3.808  0.00  0.00    +0.000 N 
ATOM    840  H   UNK B  78      -7.118  11.293   3.173  0.00  0.00    +0.000 HD
BRANCH 839 841
ATOM    841  C   UNK B  78      -5.715   9.722   3.459  0.00  0.00    +0.000 C 
BRANCH 841 842
ATOM    842  C   UNK B  78      -6.141   8.291   3.225  0.00  0.00    +0.000 C 
ATOM    843  O   UNK B  78      -7.303   7.899   3.335  0.00  0.00    +0.000 OA
ATOM    844  N   UNK B  78      -5.125   7.453   3.002  0.00  0.00    +0.000 N 
ATOM    845  H   UNK B  78      -4.199   7.787   2.980  0.00  0.00    +0.000 HD
BRANCH 844 846
ATOM    846  C   UNK B  78      -5.404   6.044   2.792  0.00  0.00    +0.000 C 
BRANCH 846 847
ATOM    847  C   UNK B  78      -6.021   5.431   4.041  0.00  0.00    +0.000 C 
ATOM    848  O   UNK B  78      -6.664   4.379   3.947  0.00  0.00    +0.000 OA
ATOM    849  N   UNK B  78      -5.814   6.036   5.225  0.00  0.00    +0.000 N 
ATOM    850  H   UNK B  78      -5.246   6.837   5.295  0.00  0.00    +0.000 HD
BRANCH 849 851
ATOM    851  C   UNK B  78      -6.458   5.466   6.398  0.00  0.00    +0.000 C 
BRANCH 851 852
ATOM    852  C   UNK B  78      -7.982   5.540   6.279  0.00  0.00    +0.000 C 
ATOM    853  O   UNK B  78      -8.691   4.625   6.727  0.00  0.00    +0.000 OA
ATOM    854  N   UNK B  78      -8.499   6.620   5.677  0.00  0.00    +0.000 N 
ATOM    855  H   UNK B  78      -7.916   7.337   5.337  0.00  0.00    +0.000 HD
BRANCH 854 856
ATOM    856  C   UNK B  78      -9.952   6.704   5.539  0.00  0.00    +0.000 C 
ATOM    857  C   UNK B  78     -10.383   8.095   5.103  0.00  0.00    +0.000 C 
BRANCH 856 858
ATOM    858  C   UNK B  78     -10.428   5.716   4.509  0.00  0.00    +0.000 C 
ATOM    859  O   UNK B  78     -11.442   5.059   4.721  0.00  0.00    +0.000 OA
ATOM    860  N   UNK B  78      -9.674   5.582   3.406  0.00  0.00    +0.000 N 
ATOM    861  H   UNK B  78      -8.915   6.192   3.262  0.00  0.00    +0.000 HD
BRANCH 860 862
ATOM    862  C   UNK B  78      -9.964   4.532   2.401  0.00  0.00    +0.000 C 
BRANCH 862 863
ATOM    863  C   UNK B  78     -10.013   3.153   3.038  0.00  0.00    +0.000 C 
ATOM    864  O   UNK B  78     -10.962   2.396   2.823  0.00  0.00    +0.000 OA
ATOM    865  N   UNK B  78      -9.081   2.858   3.948  0.00  0.00    +0.000 N 
ATOM    866  H   UNK B  78      -8.378   3.509   4.177  0.00  0.00    +0.000 HD
BRANCH 865 867
ATOM    867  C   UNK B  78      -9.125   1.568   4.588  0.00  0.00    +0.000 C 
BRANCH 867 868
ATOM    868  C   UNK B  78     -10.330   1.455   5.481  0.00  0.00    +0.000 C 
ATOM    869  O   UNK B  78     -11.004   0.418   5.488  0.00  0.00    +0.000 OA
ATOM    870  N   UNK B  78     -10.663   2.532   6.242  0.00  0.00    +0.000 N 
ATOM    871  H   UNK B  78     -10.130   3.359   6.203  0.00  0.00    +0.000 HD
BRANCH 870 872
ATOM    872  C   UNK B  78     -11.839   2.435   7.127  0.00  0.00    +0.000 C 
BRANCH 872 873
ATOM    873  C   UNK B  78     -13.124   2.253   6.328  0.00  0.00    +0.000 C 
ATOM    874  O   UNK B  78     -14.034   1.527   6.759  0.00  0.00    +0.000 OA
ATOM    875  N   UNK B  78     -13.210   2.892   5.154  0.00  0.00    +0.000 N 
ATOM    876  H   UNK B  78     -12.436   3.411   4.835  0.00  0.00    +0.000 HD
BRANCH 875 877
ATOM    877  C   UNK B  78     -14.420   2.843   4.330  0.00  0.00    +0.000 C 
BRANCH 877 878
ATOM    878  C   UNK B  78     -14.563   1.492   3.659  0.00  0.00    +0.000 C 
ATOM    879  O   UNK B  78     -15.634   0.914   3.681  0.00  0.00    +0.000 OA
ATOM    880  N   UNK B  78     -13.505   1.011   3.022  0.00  0.00    +0.000 N 
ATOM    881  H   UNK B  78     -12.623   1.420   3.180  0.00  0.00    +0.000 HD
BRANCH 880 882
ATOM    882  C   UNK B  78     -13.612  -0.101   2.098  0.00  0.00    +0.000 C 
BRANCH 882 883
ATOM    883  C   UNK B  78     -12.776  -1.300   2.492  0.00  0.00    +0.000 C 
ATOM    884  O   UNK B  78     -12.770  -2.295   1.741  0.00  0.00    +0.000 OA
ATOM    885  N   UNK B  78     -12.114  -1.286   3.648  0.00  0.00    +0.000 N 
ATOM    886  C   UNK B  78     -11.304  -2.435   4.063  0.00  0.00    +0.000 C 
ATOM    887  H   UNK B  78     -12.169  -0.494   4.231  0.00  0.00    +0.000 HD
ENDBRANCH 882 883
BRANCH 882 888
ATOM    888  C   UNK B  78     -13.206   0.356   0.699  0.00  0.00    +0.000 C 
BRANCH 888 889
ATOM    889  C   UNK B  78     -13.996   1.584   0.252  0.00  0.00    +0.000 A 
ATOM    890  C   UNK B  78     -15.385   1.540   0.038  0.00  0.00    +0.000 A 
ATOM    891  C   UNK B  78     -13.362   2.791   0.106  0.00  0.00    +0.000 A 
ATOM    892  C   UNK B  78     -16.076   2.688  -0.348  0.00  0.00    +0.000 A 
ATOM    893  C   UNK B  78     -14.043   3.900  -0.313  0.00  0.00    +0.000 A 
ATOM    894  C   UNK B  78     -15.413   3.859  -0.484  0.00  0.00    +0.000 A 
BRANCH 894 895
ATOM    895  O   UNK B  78     -16.033   5.059  -0.866  0.00  0.00    +0.000 OA
ATOM    896  H   UNK B  78     -16.961   5.087  -0.996  0.00  0.00    +0.000 HD
ENDBRANCH 894 895
ENDBRANCH 888 889
ENDBRANCH 882 888
ENDBRANCH 880 882
ENDBRANCH 877 878
BRANCH 877 897
ATOM    897  C   UNK B  78     -14.407   3.964   3.244  0.00  0.00    +0.000 C 
BRANCH 897 898
ATOM    898  C   UNK B  78     -14.587   5.371   3.894  0.00  0.00    +0.000 C 
ATOM    899  C   UNK B  78     -14.286   6.371   2.801  0.00  0.00    +0.000 C 
ATOM    900  C   UNK B  78     -16.030   5.542   4.302  0.00  0.00    +0.000 C 
ENDBRANCH 897 898
ENDBRANCH 877 897
ENDBRANCH 875 877
ENDBRANCH 872 873
BRANCH 872 901
ATOM    901  C   UNK B  78     -11.955   3.686   8.014  0.00  0.00    +0.000 C 
BRANCH 901 902
ATOM    902  C   UNK B  78     -13.251   3.662   8.805  0.00  0.00    +0.000 C 
BRANCH 902 903
ATOM    903  C   UNK B  78     -13.221   4.617   9.997  0.00  0.00    +0.000 C 
ATOM    904  O   UNK B  78     -12.097   4.945  10.457  0.00  0.00    +0.000 OA
BRANCH 903 905
ATOM    905  O   UNK B  78     -14.321   5.031  10.469  0.00  0.00    +0.000 OA
ATOM    906  H   UNK B  78     -15.130   4.753  10.086  0.00  0.00    +0.000 HD
ENDBRANCH 903 905
ENDBRANCH 902 903
ENDBRANCH 901 902
ENDBRANCH 872 901
ENDBRANCH 870 872
ENDBRANCH 867 868
BRANCH 867 907
ATOM    907  C   UNK B  78      -7.815   1.308   5.360  0.00  0.00    +0.000 C 
ATOM    908  C   UNK B  78      -7.962   0.099   6.259  0.00  0.00    +0.000 C 
ATOM    909  C   UNK B  78      -6.718   1.104   4.302  0.00  0.00    +0.000 C 
ENDBRANCH 867 907
ENDBRANCH 865 867
ENDBRANCH 862 863
BRANCH 862 910
ATOM    910  C   UNK B  78      -8.879   4.599   1.316  0.00  0.00    +0.000 C 
BRANCH 910 911
ATOM    911  C   UNK B  78      -9.041   3.525   0.263  0.00  0.00    +0.000 A 
ATOM    912  C   UNK B  78     -10.015   3.635  -0.711  0.00  0.00    +0.000 A 
ATOM    913  C   UNK B  78      -8.205   2.419   0.256  0.00  0.00    +0.000 A 
ATOM    914  C   UNK B  78     -10.188   2.619  -1.674  0.00  0.00    +0.000 A 
ATOM    915  C   UNK B  78      -8.369   1.381  -0.685  0.00  0.00    +0.000 A 
ATOM    916  C   UNK B  78      -9.335   1.484  -1.641  0.00  0.00    +0.000 A 
ENDBRANCH 910 911
ENDBRANCH 862 910
ENDBRANCH 860 862
ENDBRANCH 856 858
ENDBRANCH 854 856
ENDBRANCH 851 852
BRANCH 851 917
ATOM    917  C   UNK B  78      -5.982   6.182   7.654  0.00  0.00    +0.000 C 
BRANCH 917 918
ATOM    918  C   UNK B  78      -6.355   5.438   8.911  0.00  0.00    +0.000 C 
ATOM    919  O   UNK B  78      -5.843   4.315   9.137  0.00  0.00    +0.000 OA
BRANCH 918 920
ATOM    920  O   UNK B  78      -7.164   5.954   9.681  0.00  0.00    +0.000 OA
ATOM    921  H   UNK B  78      -7.528   6.794   9.484  0.00  0.00    +0.000 HD
ENDBRANCH 918 920
ENDBRANCH 917 918
ENDBRANCH 851 917
ENDBRANCH 849 851
ENDBRANCH 846 847
BRANCH 846 922
ATOM    922  C   UNK B  78      -4.102   5.305   2.385  0.00  0.00    +0.000 C 
BRANCH 922 923
ATOM    923  C   UNK B  78      -3.681   5.675   0.998  0.00  0.00    +0.000 A 
ATOM    924  C   UNK B  78      -2.696   6.530   0.613  0.00  0.00    +0.000 A 
ATOM    925  C   UNK B  78      -4.371   5.282  -0.192  0.00  0.00    +0.000 A 
ATOM    926  N   UNK B  78      -2.698   6.657  -0.763  0.00  0.00    +0.000 N 
ATOM    927  C   UNK B  78      -3.717   5.922  -1.282  0.00  0.00    +0.000 A 
ATOM    928  C   UNK B  78      -5.466   4.439  -0.438  0.00  0.00    +0.000 A 
ATOM    929  C   UNK B  78      -4.092   5.701  -2.624  0.00  0.00    +0.000 A 
ATOM    930  C   UNK B  78      -5.851   4.241  -1.764  0.00  0.00    +0.000 A 
ATOM    931  C   UNK B  78      -5.131   4.861  -2.833  0.00  0.00    +0.000 A 
ATOM    932  H   UNK B  78      -2.061   7.196  -1.286  0.00  0.00    +0.000 HD
ENDBRANCH 922 923
ENDBRANCH 846 922
ENDBRANCH 844 846
ENDBRANCH 841 842
ENDBRANCH 839 841
ENDBRANCH 836 837
ENDBRANCH 834 836
ENDBRANCH 831 832
BRANCH 831 933
ATOM    933  C   UNK B  78     -10.829  13.148   1.185  0.00  0.00    +0.000 C 
BRANCH 933 934
ATOM    934  C   UNK B  78     -11.454  14.401   0.460  0.00  0.00    +0.000 C 
ATOM    935  O   UNK B  78     -10.871  14.922  -0.474  0.00  0.00    +0.000 OA
ATOM    936  N   UNK B  78     -12.493  14.991   1.016  0.00  0.00    +0.000 N 
ATOM    937  H   UNK B  78     -12.903  15.775   0.585  0.00  0.00    +0.000 HD
ATOM    938  H   UNK B  78     -12.859  14.647   1.863  0.00  0.00    +0.000 HD
ENDBRANCH 933 934
ENDBRANCH 831 933
ENDBRANCH 829 831
ENDBRANCH 826 827
BRANCH 826 939
ATOM    939  C   UNK B  78      -7.983  17.502   1.864  0.00  0.00    +0.000 C 
BRANCH 939 940
ATOM    940  C   UNK B  78      -6.877  18.590   1.894  0.00  0.00    +0.000 C 
ATOM    941  O   UNK B  78      -7.012  19.633   1.140  0.00  0.00    +0.000 OA
BRANCH 940 942
ATOM    942  O   UNK B  78      -5.912  18.477   2.712  0.00  0.00    +0.000 OA
ATOM    943  H   UNK B  78      -5.838  17.711   3.246  0.00  0.00    +0.000 HD
ENDBRANCH 940 942
ENDBRANCH 939 940
ENDBRANCH 826 939
ENDBRANCH 824 826
ENDBRANCH 821 822
BRANCH 821 944
ATOM    944  C   UNK B  78      -3.552  15.077   2.183  0.00  0.00    +0.000 C 
BRANCH 944 945
ATOM    945  C   UNK B  78      -2.244  14.442   1.891  0.00  0.00    +0.000 C 
BRANCH 945 946
ATOM    946  C   UNK B  78      -1.687  13.716   3.121  0.00  0.00    +0.000 C 
ATOM    947  O   UNK B  78      -1.882  14.162   4.275  0.00  0.00    +0.000 OA
ATOM    948  N   UNK B  78      -1.017  12.591   2.883  0.00  0.00    +0.000 N 
ATOM    949  H   UNK B  78      -0.889  12.280   1.958  0.00  0.00    +0.000 HD
ATOM    950  H   UNK B  78      -0.649  12.069   3.632  0.00  0.00    +0.000 HD
ENDBRANCH 945 946
ENDBRANCH 944 945
ENDBRANCH 821 944
ENDBRANCH 819 821
ENDBRANCH 816 817
BRANCH 816 951
ATOM    951  C   UNK B  78      -5.061  11.287  -1.346  0.00  0.00    +0.000 C 
ATOM    952  C   UNK B  78      -4.668  10.247  -0.272  0.00  0.00    +0.000 C 
BRANCH 951 953
ATOM    953  C   UNK B  78      -5.618  10.602  -2.618  0.00  0.00    +0.000 C 
ATOM    954  C   UNK B  78      -4.421   9.825  -3.376  0.00  0.00    +0.000 C 
ENDBRANCH 951 953
ENDBRANCH 816 951
ENDBRANCH 814 816
ENDBRANCH 811 812
BRANCH 811 955
ATOM    955  C   UNK B  78      -8.019  15.055  -3.724  0.00  0.00    +0.000 C 
BRANCH 955 956
ATOM    956  C   UNK B  78      -9.414  14.568  -3.525  0.00  0.00    +0.000 A 
ATOM    957  C   UNK B  78     -10.535  15.317  -3.707  0.00  0.00    +0.000 A 
ATOM    958  C   UNK B  78      -9.872  13.248  -3.150  0.00  0.00    +0.000 A 
ATOM    959  N   UNK B  78     -11.654  14.587  -3.431  0.00  0.00    +0.000 N 
ATOM    960  C   UNK B  78     -11.285  13.316  -3.086  0.00  0.00    +0.000 A 
ATOM    961  C   UNK B  78      -9.243  12.024  -2.842  0.00  0.00    +0.000 A 
ATOM    962  C   UNK B  78     -12.066  12.226  -2.708  0.00  0.00    +0.000 A 
ATOM    963  C   UNK B  78     -10.020  10.930  -2.453  0.00  0.00    +0.000 A 
ATOM    964  C   UNK B  78     -11.396  11.024  -2.390  0.00  0.00    +0.000 A 
ATOM    965  H   UNK B  78     -12.579  14.922  -3.473  0.00  0.00    +0.000 HD
ENDBRANCH 955 956
ENDBRANCH 811 955
ENDBRANCH 809 811
ENDBRANCH 806 807
BRANCH 806 966
ATOM    966  C   UNK B  78      -4.079  18.569  -2.323  0.00  0.00    +0.000 C 
ATOM    967  C   UNK B  78      -4.971  19.420  -1.453  0.00  0.00    +0.000 C 
BRANCH 966 968
ATOM    968  O   UNK B  78      -2.707  19.091  -2.215  0.00  0.00    +0.000 OA
ATOM    969  H   UNK B  78      -2.418  19.052  -1.290  0.00  0.00    +0.000 HD
ENDBRANCH 966 968
ENDBRANCH 806 966
ENDBRANCH 804 806
ENDBRANCH 801 802
BRANCH 801 970
ATOM    970  C   UNK B  78      -0.584  14.856  -3.216  0.00  0.00    +0.000 C 
BRANCH 970 971
ATOM    971  C   UNK B  78      -0.033  14.938  -1.827  0.00  0.00    +0.000 A 
ATOM    972  N   UNK B  78       0.432  13.814  -1.160  0.00  0.00    +0.000 N 
ATOM    973  C   UNK B  78       0.083  15.976  -0.969  0.00  0.00    +0.000 A 
ATOM    974  C   UNK B  78       0.844  14.180   0.049  0.00  0.00    +0.000 A 
ATOM    975  N   UNK B  78       0.625  15.478   0.194  0.00  0.00    +0.000 N 
ATOM    976  H   UNK B  78       0.453  12.899  -1.522  0.00  0.00    +0.000 HD
ATOM    977  H   UNK B  78       0.819  16.003   1.004  0.00  0.00    +0.000 HD
ENDBRANCH 970 971
ENDBRANCH 801 970
ENDBRANCH 799 801
ENDBRANCH 796 797
BRANCH 796 978
ATOM    978  C   UNK B  78      -4.341  12.058  -6.515  0.00  0.00    +0.000 C 
BRANCH 978 979
ATOM    979  C   UNK B  78      -4.911  11.606  -7.852  0.00  0.00    +0.000 C 
ATOM    980  C   UNK B  78      -4.978  10.009  -7.886  0.00  0.00    +0.000 C 
ATOM    981  C   UNK B  78      -6.332  12.219  -8.098  0.00  0.00    +0.000 C 
ENDBRANCH 978 979
ENDBRANCH 796 978
ENDBRANCH 794 796
ENDBRANCH 791 792
BRANCH 791 982
ATOM    982  C   UNK B  78      -2.378  14.991 -10.139  0.00  0.00    +0.000 C 
BRANCH 982 983
ATOM    983  C   UNK B  78      -1.440  15.289 -11.289  0.00  0.00    +0.000 A 
ATOM    984  N   UNK B  78      -0.060  15.152 -11.211  0.00  0.00    +0.000 N 
ATOM    985  C   UNK B  78      -1.696  15.715 -12.557  0.00  0.00    +0.000 A 
ATOM    986  C   UNK B  78       0.488  15.509 -12.364  0.00  0.00    +0.000 A 
ATOM    987  N   UNK B  78      -0.484  15.843 -13.200  0.00  0.00    +0.000 N 
ATOM    988  H   UNK B  78       0.435  14.838 -10.420  0.00  0.00    +0.000 HD
ATOM    989  H   UNK B  78      -0.360  16.136 -14.132  0.00  0.00    +0.000 HD
ENDBRANCH 982 983
ENDBRANCH 791 982
ENDBRANCH 789 791
ENDBRANCH 786 787
BRANCH 786 990
ATOM    990  C   UNK B  78       2.348  16.003  -8.532  0.00  0.00    +0.000 C 
BRANCH 990 991
ATOM    991  C   UNK B  78       3.865  15.829  -8.216  0.00  0.00    +0.000 C 
BRANCH 991 992
ATOM    992  C   UNK B  78       4.667  15.783  -9.486  0.00  0.00    +0.000 C 
BRANCH 992 993
ATOM    993  N   UNK B  78       6.085  15.656  -9.223  0.00  0.00    +0.000 N 
ATOM    994  C   UNK B  78       6.952  16.657  -9.311  0.00  0.00    +0.000 C 
ATOM    995  N   UNK B  78       6.567  17.871  -9.649  0.00  0.00    +0.000 NA
ATOM    996  N   UNK B  78       8.222  16.427  -9.076  0.00  0.00    +0.000 N 
ATOM    997  H   UNK B  78       6.428  14.771  -8.962  0.00  0.00    +0.000 HD
ATOM    998  H   UNK B  78       5.616  18.054  -9.827  0.00  0.00    +0.000 HD
ATOM    999  H   UNK B  78       7.230  18.595  -9.723  0.00  0.00    +0.000 HD
ATOM   1000  H   UNK B  78       5.863  17.254  -9.343  0.00  0.00    +0.000 HD
ATOM   1001  H   UNK B  78       8.875  17.161  -9.138  0.00  0.00    +0.000 HD
ATOM   1002  H   UNK B  78       8.522  15.520  -8.838  0.00  0.00    +0.000 HD
ENDBRANCH 992 993
ENDBRANCH 991 992
ENDBRANCH 990 991
ENDBRANCH 786 990
ENDBRANCH 784 786
ENDBRANCH 781 782
BRANCH 7811003
ATOM   1003  C   UNK B  78       3.943  12.319  -5.974  0.00  0.00    +0.000 C 
BRANCH10031004
ATOM   1004  C   UNK B  78       4.593  11.029  -5.471  0.00  0.00    +0.000 C 
ATOM   1005  O   UNK B  78       4.078  10.411  -4.533  0.00  0.00    +0.000 OA
ATOM   1006  N   UNK B  78       5.724  10.658  -6.087  0.00  0.00    +0.000 N 
ATOM   1007  H   UNK B  78       6.080  11.198  -6.829  0.00  0.00    +0.000 HD
ATOM   1008  H   UNK B  78       6.199   9.846  -5.797  0.00  0.00    +0.000 HD
ENDBRANCH10031004
ENDBRANCH 7811003
ENDBRANCH 779 781
ENDBRANCH 776 777
BRANCH 7761009
ATOM   1009  C   UNK B  78      -0.023   8.951  -6.095  0.00  0.00    +0.000 C 
BRANCH10091010
ATOM   1010  C   UNK B  78      -0.936   7.870  -6.582  0.00  0.00    +0.000 C 
ATOM   1011  C   UNK B  78      -0.328   6.447  -6.085  0.00  0.00    +0.000 C 
ATOM   1012  C   UNK B  78      -2.379   7.913  -6.021  0.00  0.00    +0.000 C 
ENDBRANCH10091010
ENDBRANCH 7761009
ENDBRANCH 774 776
ENDBRANCH 771 772
BRANCH 7711013
ATOM   1013  C   UNK B  78      -0.772  10.462 -11.221  0.00  0.00    +0.000 C 
BRANCH10131014
ATOM   1014  C   UNK B  78      -2.083  11.106 -11.528  0.00  0.00    +0.000 A 
ATOM   1015  C   UNK B  78      -2.175  12.140 -12.443  0.00  0.00    +0.000 A 
ATOM   1016  C   UNK B  78      -3.229  10.687 -10.896  0.00  0.00    +0.000 A 
ATOM   1017  C   UNK B  78      -3.387  12.738 -12.712  0.00  0.00    +0.000 A 
ATOM   1018  C   UNK B  78      -4.441  11.274 -11.157  0.00  0.00    +0.000 A 
ATOM   1019  C   UNK B  78      -4.518  12.301 -12.062  0.00  0.00    +0.000 A 
BRANCH10191020
ATOM   1020  O   UNK B  78      -5.741  12.873 -12.309  0.00  0.00    +0.000 OA
ATOM   1021  H   UNK B  78      -5.814  13.576 -12.924  0.00  0.00    +0.000 HD
ENDBRANCH10191020
ENDBRANCH10131014
ENDBRANCH 7711013
ENDBRANCH 769 771
ENDBRANCH 766 767
BRANCH 7661022
ATOM   1022  C   UNK B  78       4.715  11.501 -10.963  0.00  0.00    +0.000 C 
BRANCH10221023
ATOM   1023  C   UNK B  78       6.198  11.146 -10.855  0.00  0.00    +0.000 C 
BRANCH10231024
ATOM   1024  C   UNK B  78       6.982  11.816  -9.713  0.00  0.00    +0.000 C 
ATOM   1025  O   UNK B  78       8.219  11.651  -9.703  0.00  0.00    +0.000 OA
BRANCH10241026
ATOM   1026  O   UNK B  78       6.419  12.486  -8.825  0.00  0.00    +0.000 OA
ATOM   1027  H   UNK B  78       5.489  12.602  -8.844  0.00  0.00    +0.000 HD
ENDBRANCH10241026
ENDBRANCH10231024
ENDBRANCH10221023
ENDBRANCH 7661022
ENDBRANCH 764 766
ENDBRANCH 761 762
BRANCH 7611028
ATOM   1028  C   UNK B  78       4.853   6.826  -8.574  0.00  0.00    +0.000 C 
ATOM   1029  C   UNK B  78       5.514   7.317  -7.267  0.00  0.00    +0.000 C 
BRANCH10281030
ATOM   1030  O   UNK B  78       4.805   5.405  -8.480  0.00  0.00    +0.000 OA
ATOM   1031  H   UNK B  78       4.291   5.150  -7.698  0.00  0.00    +0.000 HD
ENDBRANCH10281030
ENDBRANCH 7611028
ENDBRANCH 759 761
ENDBRANCH 756 757
BRANCH 7561032
ATOM   1032  C   UNK B  78       0.803   5.076 -11.367  0.00  0.00    +0.000 C 
BRANCH10321033
ATOM   1033  C   UNK B  78       0.016   4.460 -12.596  0.00  0.00    +0.000 C 
BRANCH10331034
ATOM   1034  S   UNK B  78      -0.091   2.648 -12.390  0.00  0.00    +0.000 S 
ATOM   1035  C   UNK B  78      -1.372   2.616 -11.064  0.00  0.00    +0.000 C 
ENDBRANCH10331034
ENDBRANCH10321033
ENDBRANCH 7561032
ENDBRANCH 754 756
ENDBRANCH 751 752
BRANCH 7511036
ATOM   1036  C   UNK B  78       2.844   7.869 -15.461  0.00  0.00    +0.000 C 
BRANCH10361037
ATOM   1037  C   UNK B  78       3.840   7.994 -16.622  0.00  0.00    +0.000 A 
ATOM   1038  C   UNK B  78       5.049   8.693 -16.623  0.00  0.00    +0.000 A 
ATOM   1039  C   UNK B  78       3.732   7.383 -17.907  0.00  0.00    +0.000 A 
ATOM   1040  N   UNK B  78       5.723   8.485 -17.852  0.00  0.00    +0.000 N 
ATOM   1041  C   UNK B  78       4.924   7.679 -18.620  0.00  0.00    +0.000 A 
ATOM   1042  C   UNK B  78       2.784   6.530 -18.502  0.00  0.00    +0.000 A 
ATOM   1043  C   UNK B  78       5.155   7.194 -19.937  0.00  0.00    +0.000 A 
ATOM   1044  C   UNK B  78       3.048   6.054 -19.819  0.00  0.00    +0.000 A 
ATOM   1045  C   UNK B  78       4.189   6.413 -20.480  0.00  0.00    +0.000 A 
ATOM   1046  H   UNK B  78       6.601   8.851 -18.106  0.00  0.00    +0.000 HD
ENDBRANCH10361037
ENDBRANCH 7511036
ENDBRANCH 749 751
ENDBRANCH 746 747
BRANCH 7461047
ATOM   1047  C   UNK B  78       7.669   6.551 -13.503  0.00  0.00    +0.000 C 
BRANCH10471048
ATOM   1048  C   UNK B  78       8.143   7.986 -13.251  0.00  0.00    +0.000 C 
ATOM   1049  C   UNK B  78       8.599   8.143 -11.794  0.00  0.00    +0.000 C 
ATOM   1050  C   UNK B  78       9.302   8.261 -14.266  0.00  0.00    +0.000 C 
ENDBRANCH10471048
ENDBRANCH 7461047
ENDBRANCH 744 746
ENDBRANCH 740 742
ENDBRANCH 738 740
ENDBRANCH 735 736
BRANCH 7351051
ATOM   1051  C   UNK B  78       2.835   2.432 -16.876  0.00  0.00    +0.000 C 
ATOM   1052  C   UNK B  78       1.452   2.409 -16.098  0.00  0.00    +0.000 C 
BRANCH10511053
ATOM   1053  C   UNK B  78       2.676   2.550 -18.427  0.00  0.00    +0.000 C 
ATOM   1054  C   UNK B  78       2.340   1.167 -19.077  0.00  0.00    +0.000 C 
ENDBRANCH10511053
ENDBRANCH 7351051
ENDBRANCH 733 735
ENDBRANCH 730 731
BRANCH 7301055
ATOM   1055  C   UNK B  78       7.300   4.590 -18.673  0.00  0.00    +0.000 C 
BRANCH10551056
ATOM   1056  C   UNK B  78       8.703   4.526 -19.266  0.00  0.00    +0.000 C 
ATOM   1057  O   UNK B  78       9.134   3.462 -19.674  0.00  0.00    +0.000 OA
ATOM   1058  N   UNK B  78       9.418   5.671 -19.306  0.00  0.00    +0.000 N 
ATOM   1059  H   UNK B  78      10.328   5.670 -19.682  0.00  0.00    +0.000 HD
ATOM   1060  H   UNK B  78       9.029   6.506 -18.960  0.00  0.00    +0.000 HD
ENDBRANCH10551056
ENDBRANCH 7301055
ENDBRANCH 728 730
ENDBRANCH 725 726
BRANCH 7251061
ATOM   1061  C   UNK B  78      10.046   0.926 -15.893  0.00  0.00    +0.000 C 
BRANCH10611062
ATOM   1062  C   UNK B  78      10.605  -0.458 -15.642  0.00  0.00    +0.000 C 
ATOM   1063  O   UNK B  78      11.292  -1.019 -16.536  0.00  0.00    +0.000 OA
BRANCH10621064
ATOM   1064  O   UNK B  78      10.397  -0.984 -14.549  0.00  0.00    +0.000 OA
ATOM   1065  H   UNK B  78       9.881  -0.539 -13.906  0.00  0.00    +0.000 HD
ENDBRANCH10621064
ENDBRANCH10611062
ENDBRANCH 7251061
ENDBRANCH 723 725
ENDBRANCH 720 721
BRANCH 7201066
ATOM   1066  C   UNK B  78       5.878  -2.414 -16.939  0.00  0.00    +0.000 C 
ATOM   1067  C   UNK B  78       5.372  -2.589 -15.533  0.00  0.00    +0.000 C 
ATOM   1068  C   UNK B  78       5.016  -3.280 -17.875  0.00  0.00    +0.000 C 
ENDBRANCH 7201066
ENDBRANCH 718 720
ENDBRANCH 715 716
BRANCH 7151069
ATOM   1069  C   UNK B  78       5.714   0.768 -21.615  0.00  0.00    +0.000 C 
BRANCH10691070
ATOM   1070  C   UNK B  78       5.974   1.454 -22.980  0.00  0.00    +0.000 C 
ATOM   1071  C   UNK B  78       4.701   1.279 -23.858  0.00  0.00    +0.000 C 
ATOM   1072  C   UNK B  78       6.254   2.907 -22.791  0.00  0.00    +0.000 C 
ENDBRANCH10691070
ENDBRANCH 7151069
ENDBRANCH 713 715
ENDBRANCH 707 711
ENDBRANCH 703 704
BRANCH 7031073
ATOM   1073  C   UNK B  78       8.472  -5.726 -20.943  0.00  0.00    +0.000 C 
BRANCH10731074
ATOM   1074  O   UNK B  78       7.566  -6.774 -21.006  0.00  0.00    +0.000 OA
ATOM   1075  H   UNK B  78       6.816  -6.588 -20.420  0.00  0.00    +0.000 HD
ENDBRANCH10731074
ENDBRANCH 7031073
ENDBRANCH 701 703
ENDBRANCH 698 699
BRANCH 6981076
ATOM   1076  CB  MET B  77       6.008  -2.084 -25.338  0.00  0.00    +0.000 C 
BRANCH10761077
ATOM   1077  CG  MET B  77       5.845  -2.102 -26.819  0.00  0.00    +0.000 C 
BRANCH10771078
ATOM   1078  SD  MET B  77       4.925  -0.647 -27.302  0.00  0.00    +0.000 S 
ATOM   1079  CE  MET B  77       3.447  -0.748 -26.423  0.00  0.00    +0.000 C 
ENDBRANCH10771078
ENDBRANCH10761077
ENDBRANCH 6981076
ENDBRANCH 696 698
ENDBRANCH 693 694
BRANCH 6931080
ATOM   1080  CB  GLU B  76       6.627  -7.123 -27.969  0.00  0.00    +0.000 C 
BRANCH10801081
ATOM   1081  CG  GLU B  76       6.036  -8.508 -28.154  0.00  0.00    +0.000 C 
BRANCH10811082
ATOM   1082  CD  GLU B  76       6.386  -9.097 -29.525  0.00  0.00    +0.000 C 
ATOM   1083  OE1 GLU B  76       5.444  -9.378 -30.299  0.00  0.00    +0.000 OA
BRANCH10821084
ATOM   1084  OE2 GLU B  76       7.612  -9.207 -29.856  0.00  0.00    +0.000 OA
ATOM   1085  H   GLU B  76       8.285  -8.985 -29.243  0.00  0.00    +0.000 HD
ENDBRANCH10821084
ENDBRANCH10811082
ENDBRANCH10801081
ENDBRANCH 6931080
ENDBRANCH 691 693
ENDBRANCH 688 689
BRANCH 6881086
ATOM   1086  CB  ARG B  75       2.126  -3.871 -27.480  0.00  0.00    +0.000 C 
BRANCH10861087
ATOM   1087  CG  ARG B  75       0.659  -3.596 -27.523  0.00  0.00    +0.000 C 
BRANCH10871088
ATOM   1088  CD  ARG B  75       0.105  -4.010 -28.872  0.00  0.00    +0.000 C 
BRANCH10881089
ATOM   1089  NE  ARG B  75      -1.284  -3.589 -29.040  0.00  0.00    +0.000 N 
ATOM   1090  CZ  ARG B  75      -2.129  -4.122 -29.921  0.00  0.00    +0.000 C 
ATOM   1091  NH1 ARG B  75      -1.720  -5.112 -30.723  0.00  0.00    +0.000 NA
ATOM   1092  NH2 ARG B  75      -3.382  -3.667 -29.995  0.00  0.00    +0.000 N 
ATOM   1093  H   ARG B  75      -1.617  -2.863 -28.464  0.00  0.00    +0.000 HD
ATOM   1094  H   ARG B  75      -2.343  -5.507 -31.375  0.00  0.00    +0.000 HD
ATOM   1095  H   ARG B  75      -0.796  -5.445 -30.661  0.00  0.00    +0.000 HD
ATOM   1096  H   ARG B  75      -2.515  -4.641 -30.383  0.00  0.00    +0.000 HD
ATOM   1097  H   ARG B  75      -4.010  -4.058 -30.645  0.00  0.00    +0.000 HD
ATOM   1098  H   ARG B  75      -3.678  -2.941 -29.400  0.00  0.00    +0.000 HD
ENDBRANCH10881089
ENDBRANCH10871088
ENDBRANCH10861087
ENDBRANCH 6881086
ENDBRANCH 686 688
ENDBRANCH 683 684
BRANCH 6831099
ATOM   1099  CB  ASN B  74      -0.388  -7.796 -24.920  0.00  0.00    +0.000 C 
BRANCH10991100
ATOM   1100  CG  ASN B  74      -1.015  -8.619 -23.810  0.00  0.00    +0.000 C 
ATOM   1101  OD1 ASN B  74      -0.454  -9.628 -23.354  0.00  0.00    +0.000 OA
ATOM   1102  ND2 ASN B  74      -2.282  -8.257 -23.411  0.00  0.00    +0.000 N 
ATOM   1103  H   ASN B  74      -2.705  -7.452 -23.788  0.00  0.00    +0.000 HD
ATOM   1104  H   ASN B  74      -2.765  -8.803 -22.749  0.00  0.00    +0.000 HD
ENDBRANCH10991100
ENDBRANCH 6831099
ENDBRANCH 681 683
ENDBRANCH 678 679
BRANCH 6781105
ATOM   1105  CB  VAL B  73       3.620  -7.499 -21.191  0.00  0.00    +0.000 C 
ATOM   1106  CG1 VAL B  73       4.371  -8.808 -21.408  0.00  0.00    +0.000 C 
ATOM   1107  CG2 VAL B  73       4.160  -6.746 -19.958  0.00  0.00    +0.000 C 
ENDBRANCH 6781105
ENDBRANCH 676 678
ENDBRANCH 673 674
BRANCH 6731108
ATOM   1108  CB  SER B  72       3.160  -2.256 -21.758  0.00  0.00    +0.000 C 
BRANCH11081109
ATOM   1109  OG  SER B  72       2.585  -0.906 -21.701  0.00  0.00    +0.000 OA
ATOM   1110  H   SER B  72       2.655  -0.488 -22.573  0.00  0.00    +0.000 HD
ENDBRANCH11081109
ENDBRANCH 6731108
ENDBRANCH 671 673
ENDBRANCH 668 669
BRANCH 6681111
ATOM   1111  CB  GLU B  71      -2.312  -3.283 -23.126  0.00  0.00    +0.000 C 
BRANCH11111112
ATOM   1112  CG  GLU B  71      -3.742  -3.771 -22.865  0.00  0.00    +0.000 C 
BRANCH11121113
ATOM   1113  CD  GLU B  71      -3.984  -5.235 -23.236  0.00  0.00    +0.000 C 
ATOM   1114  OE1 GLU B  71      -3.540  -5.670 -24.309  0.00  0.00    +0.000 OA
BRANCH11131115
ATOM   1115  OE2 GLU B  71      -4.642  -5.952 -22.460  0.00  0.00    +0.000 OA
ATOM   1116  H   GLU B  71      -4.966  -5.597 -21.655  0.00  0.00    +0.000 HD
ENDBRANCH11131115
ENDBRANCH11121113
ENDBRANCH11111112
ENDBRANCH 6681111
ENDBRANCH 666 668
ENDBRANCH 663 664
BRANCH 6631117
ATOM   1117  CB  VAL B  70      -1.951  -6.311 -18.869  0.00  0.00    +0.000 C 
ATOM   1118  CG1 VAL B  70      -2.348  -7.461 -19.847  0.00  0.00    +0.000 C 
ATOM   1119  CG2 VAL B  70      -1.858  -6.829 -17.461  0.00  0.00    +0.000 C 
ENDBRANCH 6631117
ENDBRANCH 661 663
ENDBRANCH 658 659
BRANCH 6581120
ATOM   1120  CB  CYS B  69       1.265  -2.762 -16.540  0.00  0.00    +0.000 C 
BRANCH11201121
ATOM   1121  SG  CYS B  69       1.841  -1.226 -15.712  0.00  0.00    +0.000 S 
ATOM   1122  H   CYS B  69       2.971  -0.778 -16.322  0.00  0.00    +0.000 HD
ENDBRANCH11201121
ENDBRANCH 6581120
ENDBRANCH 656 658
ENDBRANCH 653 654
BRANCH 6531123
ATOM   1123  CB  MET B  68      -1.356   1.138 -18.961  0.00  0.00    +0.000 C 
BRANCH11231124
ATOM   1124  CG  MET B  68      -2.496   2.127 -19.187  0.00  0.00    +0.000 C 
BRANCH11241125
ATOM   1125  SD  MET B  68      -2.265   2.856 -20.820  0.00  0.00    +0.000 S 
ATOM   1126  CE  MET B  68      -0.575   3.571 -20.807  0.00  0.00    +0.000 C 
ENDBRANCH11241125
ENDBRANCH11231124
ENDBRANCH 6531123
ENDBRANCH 651 653
ENDBRANCH 648 649
BRANCH 6481127
ATOM   1127  CB  VAL B  67      -5.796  -2.039 -18.315  0.00  0.00    +0.000 C 
ATOM   1128  CG1 VAL B  67      -6.030  -2.168 -19.847  0.00  0.00    +0.000 C 
ATOM   1129  CG2 VAL B  67      -6.843  -2.867 -17.539  0.00  0.00    +0.000 C 
ENDBRANCH 6481127
ENDBRANCH 646 648
ENDBRANCH 643 644
ENDBRANCH 641 643
ENDBRANCH 638 639
ENDBRANCH 636 638
ENDBRANCH 633 634
BRANCH 6331130
ATOM   1130  CB  PHE B  64      -6.874   2.737 -15.884  0.00  0.00    +0.000 C 
BRANCH11301131
ATOM   1131  CG  PHE B  64      -6.286   3.332 -17.094  0.00  0.00    +0.000 A 
ATOM   1132  CD1 PHE B  64      -6.548   2.763 -18.311  0.00  0.00    +0.000 A 
ATOM   1133  CD2 PHE B  64      -5.403   4.425 -16.961  0.00  0.00    +0.000 A 
ATOM   1134  CE1 PHE B  64      -5.978   3.322 -19.547  0.00  0.00    +0.000 A 
ATOM   1135  CE2 PHE B  64      -4.850   5.024 -18.134  0.00  0.00    +0.000 A 
ATOM   1136  CZ  PHE B  64      -5.148   4.466 -19.385  0.00  0.00    +0.000 A 
ENDBRANCH11301131
ENDBRANCH 6331130
ENDBRANCH 631 633
ENDBRANCH 628 629
BRANCH 6281137
ATOM   1137  CB  GLU B  63      -8.478  -1.129 -12.411  0.00  0.00    +0.000 C 
BRANCH11371138
ATOM   1138  CG  GLU B  63      -8.862  -1.986 -11.214  0.00  0.00    +0.000 C 
BRANCH11381139
ATOM   1139  CD  GLU B  63      -8.251  -3.376 -11.252  0.00  0.00    +0.000 C 
ATOM   1140  OE1 GLU B  63      -8.362  -4.070 -12.264  0.00  0.00    +0.000 OA
BRANCH11391141
ATOM   1141  OE2 GLU B  63      -7.592  -3.736 -10.260  0.00  0.00    +0.000 OA
ATOM   1142  H   GLU B  63      -7.533  -3.178  -9.509  0.00  0.00    +0.000 HD
ENDBRANCH11391141
ENDBRANCH11381139
ENDBRANCH11371138
ENDBRANCH 6281137
ENDBRANCH 626 628
ENDBRANCH 623 624
BRANCH 6231143
ATOM   1143  CB  PHE B  62      -5.156   1.319  -8.951  0.00  0.00    +0.000 C 
BRANCH11431144
ATOM   1144  CG  PHE B  62      -4.339   2.150  -8.008  0.00  0.00    +0.000 A 
ATOM   1145  CD2 PHE B  62      -4.919   3.173  -7.292  0.00  0.00    +0.000 A 
ATOM   1146  CD1 PHE B  62      -2.991   1.912  -7.846  0.00  0.00    +0.000 A 
ATOM   1147  CE2 PHE B  62      -4.172   3.948  -6.435  0.00  0.00    +0.000 A 
ATOM   1148  CE1 PHE B  62      -2.237   2.683  -6.992  0.00  0.00    +0.000 A 
ATOM   1149  CZ  PHE B  62      -2.829   3.697  -6.280  0.00  0.00    +0.000 A 
ENDBRANCH11431144
ENDBRANCH 6231143
ENDBRANCH 621 623
ENDBRANCH 618 619
BRANCH 6181150
ATOM   1150  CB  PHE B  61      -6.761   5.979 -11.198  0.00  0.00    +0.000 C 
BRANCH11501151
ATOM   1151  CG  PHE B  61      -5.268   6.298 -11.127  0.00  0.00    +0.000 A 
ATOM   1152  CD1 PHE B  61      -4.710   7.056 -12.164  0.00  0.00    +0.000 A 
ATOM   1153  CD2 PHE B  61      -4.533   5.915 -10.044  0.00  0.00    +0.000 A 
ATOM   1154  CE1 PHE B  61      -3.310   7.395 -12.055  0.00  0.00    +0.000 A 
ATOM   1155  CE2 PHE B  61      -3.138   6.273  -9.912  0.00  0.00    +0.000 A 
ATOM   1156  CZ  PHE B  61      -2.600   7.025 -10.965  0.00  0.00    +0.000 A 
ENDBRANCH11501151
ENDBRANCH 6181150
ENDBRANCH 616 618
ENDBRANCH 612 614
ENDBRANCH 610 612
ENDBRANCH 607 608
BRANCH 6071157
ATOM   1157  CB  VAL B  59     -10.582   1.770  -6.979  0.00  0.00    +0.000 C 
ATOM   1158  CG1 VAL B  59     -10.534   0.196  -7.376  0.00  0.00    +0.000 C 
ATOM   1159  CG2 VAL B  59     -10.380   1.909  -5.424  0.00  0.00    +0.000 C 
ENDBRANCH 6071157
ENDBRANCH 605 607
ENDBRANCH 602 603
BRANCH 6021160
ATOM   1160  CB  ILE B  58      -8.527   6.803  -6.304  0.00  0.00    +0.000 C 
ATOM   1161  CG2 ILE B  58      -7.121   6.232  -5.889  0.00  0.00    +0.000 C 
BRANCH11601162
ATOM   1162  CG1 ILE B  58      -8.501   8.367  -6.305  0.00  0.00    +0.000 C 
ATOM   1163  CD1 ILE B  58      -8.130   8.924  -4.949  0.00  0.00    +0.000 C 
ENDBRANCH11601162
ENDBRANCH 6021160
ENDBRANCH 600 602
ENDBRANCH 597 598
BRANCH 5971164
ATOM   1164  CB  ARG B  57     -12.562   8.194  -9.836  0.00  0.00    +0.000 C 
BRANCH11641165
ATOM   1165  CG  ARG B  57     -14.013   8.282 -10.451  0.00  0.00    +0.000 C 
BRANCH11651166
ATOM   1166  CD  ARG B  57     -14.466   9.694 -10.474  0.00  0.00    +0.000 C 
BRANCH11661167
ATOM   1167  NE  ARG B  57     -15.815   9.722 -11.131  0.00  0.00    +0.000 N 
ATOM   1168  CZ  ARG B  57     -16.678  10.728 -11.011  0.00  0.00    +0.000 C 
ATOM   1169  NH1 ARG B  57     -17.847  10.675 -11.661  0.00  0.00    +0.000 NA
ATOM   1170  NH2 ARG B  57     -16.395  11.789 -10.240  0.00  0.00    +0.000 N 
ATOM   1171  H   ARG B  57     -16.077   8.950 -11.684  0.00  0.00    +0.000 HD
ATOM   1172  H   ARG B  57     -18.060   9.899 -12.228  0.00  0.00    +0.000 HD
ATOM   1173  H   ARG B  57     -18.494  11.412 -11.572  0.00  0.00    +0.000 HD
ATOM   1174  H   ARG B  57     -18.065  11.395 -11.026  0.00  0.00    +0.000 HD
ATOM   1175  H   ARG B  57     -17.043  12.526 -10.160  0.00  0.00    +0.000 HD
ATOM   1176  H   ARG B  57     -15.540  11.830  -9.754  0.00  0.00    +0.000 HD
ENDBRANCH11661167
ENDBRANCH11651166
ENDBRANCH11641165
ENDBRANCH 5971164
ENDBRANCH 595 597
ENDBRANCH 592 593
ENDBRANCH   3 592
TORSDOF 462
REMARK  Name = pdbfixer_74_keep_none.pdb
REMARK  664 active torsions:
REMARK  status: ('A' for Active; 'I' for Inactive)
REMARK    1  A    between atoms: N_1  and  CA_2
REMARK    2  A    between atoms: CA_2  and  C_3
REMARK    3  A    between atoms: CA_2  and  CB_5
REMARK    4  A    between atoms: CB_5  and  CG_6
REMARK    5  A    between atoms: CZ_11  and  OH_12
REMARK    6  A    between atoms: N_13  and  CA_14
REMARK    7  A    between atoms: CA_14  and  C_15
REMARK    8  A    between atoms: CA_14  and  CB_17
REMARK    9  A    between atoms: CB_17  and  CG_18
REMARK   10  A    between atoms: CG_18  and  OD2_20
REMARK   11  A    between atoms: N_21  and  CA_22
REMARK   12  A    between atoms: CA_22  and  C_23
REMARK   13  A    between atoms: CA_22  and  CB_25
REMARK   14  A    between atoms: CB_25  and  CG_26
REMARK   15  A    between atoms: N_29  and  CA_30
REMARK   16  A    between atoms: CA_30  and  C_31
REMARK   17  A    between atoms: CA_30  and  CB_33
REMARK   18  A    between atoms: CB_33  and  CG_34
REMARK   19  A    between atoms: CG_34  and  CD_35
REMARK   20  A    between atoms: CD_35  and  NE_36
REMARK   21  A    between atoms: N_40  and  CA_41
REMARK   22  A    between atoms: CA_41  and  C_42
REMARK   23  A    between atoms: CA_41  and  CB_44
REMARK   24  A    between atoms: CB_44  and  CG_45
REMARK   25  A    between atoms: CG_45  and  CD_46
REMARK   26  A    between atoms: CD_46  and  OE2_48
REMARK   27  A    between atoms: N_49  and  CA_50
REMARK   28  A    between atoms: CA_50  and  C_51
REMARK   29  A    between atoms: CA_50  and  CB_53
REMARK   30  A    between atoms: CB_53  and  CG1_54
REMARK   31  A    between atoms: CB_53  and  CG2_55
REMARK   32  A    between atoms: CG1_54  and  CD1_56
REMARK   33  A    between atoms: N_57  and  CA_58
REMARK   34  A    between atoms: CA_58  and  C_59
REMARK   35  A    between atoms: CA_58  and  CB_61
REMARK   36  A    between atoms: CB_61  and  CG1_62
REMARK   37  A    between atoms: CB_61  and  CG2_63
REMARK   38  A    between atoms: N_64  and  CA_65
REMARK   39  A    between atoms: CA_65  and  C_66
REMARK   40  A    between atoms: CA_65  and  CB_68
REMARK   41  A    between atoms: CB_68  and  CG_69
REMARK   42  A    between atoms: CG_69  and  SD_70
REMARK   43  A    between atoms: SD_70  and  CE_71
REMARK   44  A    between atoms: N_72  and  CA_73
REMARK   45  A    between atoms: CA_73  and  C_74
REMARK   46  A    between atoms: CA_73  and  CB_76
REMARK   47  A    between atoms: CB_76  and  CG_77
REMARK   48  A    between atoms: CG_77  and  CD_78
REMARK   49  A    between atoms: CD_78  and  CE_79
REMARK   50  A    between atoms: CE_79  and  NZ_80
REMARK   51  A    between atoms: N_81  and  CA_82
REMARK   52  A    between atoms: CA_82  and  C_83
REMARK   53  A    between atoms: CA_82  and  CB_85
REMARK   54  A    between atoms: CB_85  and  CG_86
REMARK   55  A    between atoms: CZ_91  and  OH_92
REMARK   56  A    between atoms: N_93  and  CA_94
REMARK   57  A    between atoms: CA_94  and  C_95
REMARK   58  A    between atoms: CA_94  and  CB_97
REMARK   59  A    between atoms: CB_97  and  CG1_98
REMARK   60  A    between atoms: CB_97  and  CG2_99
REMARK   61  A    between atoms: CG1_98  and  CD1_100
REMARK   62  A    between atoms: N_101  and  CA_102
REMARK   63  A    between atoms: CA_102  and  C_103
REMARK   64  A    between atoms: CA_102  and  CB_105
REMARK   65  A    between atoms: CB_105  and  CG_106
REMARK   66  A    between atoms: N_111  and  CA_112
REMARK   67  A    between atoms: CA_112  and  C_113
REMARK   68  A    between atoms: CA_112  and  CB_115
REMARK   69  A    between atoms: CB_115  and  CG_116
REMARK   70  A    between atoms: CZ_121  and  OH_122
REMARK   71  A    between atoms: N_123  and  CA_124
REMARK   72  A    between atoms: CA_124  and  C_125
REMARK   73  A    between atoms: CA_124  and  CB_127
REMARK   74  A    between atoms: CB_127  and  CG_128
REMARK   75  A    between atoms: CG_128  and  CD_129
REMARK   76  A    between atoms: CD_129  and  CE_130
REMARK   77  A    between atoms: CE_130  and  NZ_131
REMARK   78  A    between atoms: N_132  and  CA_133
REMARK   79  A    between atoms: CA_133  and  C_134
REMARK   80  A    between atoms: CA_133  and  CB_136
REMARK   81  A    between atoms: CB_136  and  CG_137
REMARK   82  A    between atoms: CG_137  and  CD2_138
REMARK   83  A    between atoms: CG_137  and  CD1_139
REMARK   84  A    between atoms: N_140  and  CA_141
REMARK   85  A    between atoms: CA_141  and  C_142
REMARK   86  A    between atoms: CA_141  and  CB_144
REMARK   87  A    between atoms: CB_144  and  OG_145
REMARK   88  A    between atoms: N_146  and  CA_147
REMARK   89  A    between atoms: CA_147  and  C_148
REMARK   90  A    between atoms: CA_147  and  CB_150
REMARK   91  A    between atoms: CB_150  and  CG_151
REMARK   92  A    between atoms: CG_151  and  CD_152
REMARK   93  A    between atoms: N_155  and  CA_156
REMARK   94  A    between atoms: CA_156  and  C_157
REMARK   95  A    between atoms: CA_156  and  CB_159
REMARK   96  A    between atoms: CB_159  and  CG_160
REMARK   97  A    between atoms: CG_160  and  CD_161
REMARK   98  A    between atoms: CD_161  and  NE_162
REMARK   99  A    between atoms: N_166  and  CA_167
REMARK  100  A    between atoms: CA_167  and  C_168
REMARK  101  A    between atoms: N_170  and  CA_171
REMARK  102  A    between atoms: CA_171  and  C_172
REMARK  103  A    between atoms: CA_171  and  CB_174
REMARK  104  A    between atoms: CB_174  and  CG_175
REMARK  105  A    between atoms: CZ_180  and  OH_181
REMARK  106  A    between atoms: N_182  and  CA_183
REMARK  107  A    between atoms: CA_183  and  C_184
REMARK  108  A    between atoms: CA_183  and  CB_186
REMARK  109  A    between atoms: CB_186  and  CG_187
REMARK  110  A    between atoms: CG_187  and  CD_188
REMARK  111  A    between atoms: CD_188  and  OE2_189
REMARK  112  A    between atoms: N_191  and  CA_192
REMARK  113  A    between atoms: CA_192  and  C_193
REMARK  114  A    between atoms: CA_192  and  CB_195
REMARK  115  A    between atoms: CB_195  and  CG_196
REMARK  116  A    between atoms: N_205  and  CA_206
REMARK  117  A    between atoms: CA_206  and  C_207
REMARK  118  A    between atoms: CA_206  and  CB_209
REMARK  119  A    between atoms: CB_209  and  CG_210
REMARK  120  A    between atoms: CG_210  and  OD2_211
REMARK  121  A    between atoms: N_213  and  CA_214
REMARK  122  A    between atoms: CA_214  and  C_215
REMARK  123  A    between atoms: CA_214  and  CB_217
REMARK  124  A    between atoms: N_218  and  CA_219
REMARK  125  A    between atoms: CA_219  and  C_220
REMARK  126  A    between atoms: N_222  and  CA_223
REMARK  127  A    between atoms: CA_223  and  C_224
REMARK  128  A    between atoms: CA_223  and  CB_226
REMARK  129  A    between atoms: CB_226  and  CG_227
REMARK  130  A    between atoms: CG_227  and  OD2_228
REMARK  131  A    between atoms: N_230  and  CA_231
REMARK  132  A    between atoms: CA_231  and  C_232
REMARK  133  A    between atoms: CA_231  and  CB_234
REMARK  134  A    between atoms: CB_234  and  CG_235
REMARK  135  A    between atoms: CG_235  and  OD2_237
REMARK  136  A    between atoms: N_238  and  CA_239
REMARK  137  A    between atoms: CA_239  and  C_240
REMARK  138  A    between atoms: CA_239  and  CB_242
REMARK  139  A    between atoms: CB_242  and  OG_243
REMARK  140  A    between atoms: N_244  and  CA_245
REMARK  141  A    between atoms: CA_245  and  C_246
REMARK  142  A    between atoms: CA_245  and  CB_248
REMARK  143  A    between atoms: CB_248  and  CG_249
REMARK  144  A    between atoms: CG_249  and  CD_250
REMARK  145  A    between atoms: CD_250  and  OE2_251
REMARK  146  A    between atoms: N_253  and  CA_254
REMARK  147  A    between atoms: CA_254  and  C_255
REMARK  148  A    between atoms: CA_254  and  CB_257
REMARK  149  A    between atoms: CB_257  and  CG1_258
REMARK  150  A    between atoms: CB_257  and  CG2_259
REMARK  151  A    between atoms: N_260  and  CA_261
REMARK  152  A    between atoms: CA_261  and  C_262
REMARK  153  A    between atoms: CA_261  and  CB_264
REMARK  154  A    between atoms: CB_264  and  CG1_265
REMARK  155  A    between atoms: CB_264  and  CG2_266
REMARK  156  A    between atoms: N_267  and  CA_268
REMARK  157  A    between atoms: CA_268  and  C_269
REMARK  158  A    between atoms: CA_268  and  CB_271
REMARK  159  A    between atoms: CB_271  and  CG_272
REMARK  160  A    between atoms: N_277  and  CA_278
REMARK  161  A    between atoms: CA_278  and  C_279
REMARK  162  A    between atoms: CA_278  and  CB_281
REMARK  163  A    between atoms: CB_281  and  CG_282
REMARK  164  A    between atoms: CG_282  and  CD1_283
REMARK  165  A    between atoms: CG_282  and  CD2_284
REMARK  166  A    between atoms: N_285  and  CA_286
REMARK  167  A    between atoms: CA_286  and  C_287
REMARK  168  A    between atoms: CA_286  and  CB_289
REMARK  169  A    between atoms: CB_289  and  OG1_290
REMARK  170  A    between atoms: CB_289  and  CG2_291
REMARK  171  A    between atoms: N_292  and  CA_293
REMARK  172  A    between atoms: CA_293  and  C_294
REMARK  173  A    between atoms: CA_293  and  CB_296
REMARK  174  A    between atoms: CB_296  and  CG_297
REMARK  175  A    between atoms: CG_297  and  CD1_298
REMARK  176  A    between atoms: CG_297  and  CD2_299
REMARK  177  A    between atoms: N_300  and  CA_301
REMARK  178  A    between atoms: CA_301  and  C_302
REMARK  179  A    between atoms: CA_301  and  CB_304
REMARK  180  A    between atoms: CB_304  and  CG_305
REMARK  181  A    between atoms: CG_305  and  CD_306
REMARK  182  A    between atoms: CD_306  and  NE_307
REMARK  183  A    between atoms: N_311  and  CA_312
REMARK  184  A    between atoms: CA_312  and  C_313
REMARK  185  A    between atoms: CA_312  and  CB_315
REMARK  186  A    between atoms: CB_315  and  CG_316
REMARK  187  A    between atoms: CG_316  and  CD_317
REMARK  188  A    between atoms: N_320  and  CA_321
REMARK  189  A    between atoms: CA_321  and  C_322
REMARK  190  A    between atoms: CA_321  and  CB_324
REMARK  191  A    between atoms: N_325  and  CA_326
REMARK  192  A    between atoms: CA_326  and  C_327
REMARK  193  A    between atoms: N_329  and  CA_330
REMARK  194  A    between atoms: CA_330  and  C_331
REMARK  195  A    between atoms: CA_330  and  CB_333
REMARK  196  A    between atoms: CB_333  and  CG_334
REMARK  197  A    between atoms: CG_334  and  OD2_336
REMARK  198  A    between atoms: N_337  and  CA_338
REMARK  199  A    between atoms: CA_338  and  C_339
REMARK  200  A    between atoms: CA_338  and  CB_341
REMARK  201  A    between atoms: CB_341  and  CG_342
REMARK  202  A    between atoms: CG_342  and  OD2_343
REMARK  203  A    between atoms: N_345  and  CA_346
REMARK  204  A    between atoms: CA_346  and  C_347
REMARK  205  A    between atoms: CA_346  and  CB_349
REMARK  206  A    between atoms: CB_349  and  CG_350
REMARK  207  A    between atoms: N_356  and  CA_357
REMARK  208  A    between atoms: CA_357  and  C_358
REMARK  209  A    between atoms: CA_357  and  CB_360
REMARK  210  A    between atoms: CB_360  and  OG_361
REMARK  211  A    between atoms: N_362  and  CA_363
REMARK  212  A    between atoms: CA_363  and  C_364
REMARK  213  A    between atoms: CA_363  and  CB_366
REMARK  214  A    between atoms: CB_366  and  CG_367
REMARK  215  A    between atoms: CG_367  and  CD_368
REMARK  216  A    between atoms: CD_368  and  NE_369
REMARK  217  A    between atoms: N_373  and  CA_374
REMARK  218  A    between atoms: CA_374  and  C_375
REMARK  219  A    between atoms: CA_374  and  CB_377
REMARK  220  A    between atoms: CB_377  and  CG_378
REMARK  221  A    between atoms: CG_378  and  CD_379
REMARK  222  A    between atoms: CD_379  and  NE_380
REMARK  223  A    between atoms: N_384  and  CA_385
REMARK  224  A    between atoms: CA_385  and  C_386
REMARK  225  A    between atoms: CA_385  and  CB_388
REMARK  226  A    between atoms: CB_388  and  CG_389
REMARK  227  A    between atoms: CZ_394  and  OH_395
REMARK  228  A    between atoms: N_396  and  CA_397
REMARK  229  A    between atoms: CA_397  and  C_398
REMARK  230  A    between atoms: CA_397  and  CB_400
REMARK  231  A    between atoms: CB_400  and  CG_401
REMARK  232  A    between atoms: CG_401  and  CD_402
REMARK  233  A    between atoms: CD_402  and  NE_403
REMARK  234  A    between atoms: N_407  and  CA_408
REMARK  235  A    between atoms: CA_408  and  C_409
REMARK  236  A    between atoms: CA_408  and  CB_411
REMARK  237  A    between atoms: CB_411  and  CG_412
REMARK  238  A    between atoms: CG_412  and  CD_413
REMARK  239  A    between atoms: CD_413  and  NE_414
REMARK  240  A    between atoms: N_418  and  CA_419
REMARK  241  A    between atoms: CA_419  and  C_420
REMARK  242  A    between atoms: CA_419  and  CB_422
REMARK  243  A    between atoms: CB_422  and  CG_423
REMARK  244  A    between atoms: CG_423  and  OD2_425
REMARK  245  A    between atoms: N_426  and  CA_427
REMARK  246  A    between atoms: CA_427  and  C_428
REMARK  247  A    between atoms: CA_427  and  CB_430
REMARK  248  A    between atoms: CB_430  and  CG_431
REMARK  249  A    between atoms: N_437  and  CA_438
REMARK  250  A    between atoms: CA_438  and  C_439
REMARK  251  A    between atoms: CA_438  and  CB_441
REMARK  252  A    between atoms: N_442  and  CA_443
REMARK  253  A    between atoms: CA_443  and  C_444
REMARK  254  A    between atoms: CA_443  and  CB_446
REMARK  255  A    between atoms: CB_446  and  CG_447
REMARK  256  A    between atoms: CG_447  and  CD_448
REMARK  257  A    between atoms: CD_448  and  OE2_449
REMARK  258  A    between atoms: N_451  and  CA_452
REMARK  259  A    between atoms: CA_452  and  C_453
REMARK  260  A    between atoms: CA_452  and  CB_455
REMARK  261  A    between atoms: CB_455  and  CG_456
REMARK  262  A    between atoms: CG_456  and  SD_457
REMARK  263  A    between atoms: SD_457  and  CE_458
REMARK  264  A    between atoms: N_459  and  CA_460
REMARK  265  A    between atoms: CA_460  and  C_461
REMARK  266  A    between atoms: CA_460  and  CB_463
REMARK  267  A    between atoms: CB_463  and  OG_464
REMARK  268  A    between atoms: N_465  and  CA_466
REMARK  269  A    between atoms: CA_466  and  C_467
REMARK  270  A    between atoms: CA_466  and  CB_469
REMARK  271  A    between atoms: CB_469  and  OG_470
REMARK  272  A    between atoms: N_471  and  CA_472
REMARK  273  A    between atoms: CA_472  and  C_473
REMARK  274  A    between atoms: CA_472  and  CB_475
REMARK  275  A    between atoms: CB_475  and  CG_476
REMARK  276  A    between atoms: CG_476  and  CD_477
REMARK  277  A    between atoms: N_480  and  CA_481
REMARK  278  A    between atoms: CA_481  and  C_482
REMARK  279  A    between atoms: CA_481  and  CB_484
REMARK  280  A    between atoms: CB_484  and  CG_485
REMARK  281  A    between atoms: CG_485  and  CD2_486
REMARK  282  A    between atoms: CG_485  and  CD1_487
REMARK  283  A    between atoms: N_488  and  CA_489
REMARK  284  A    between atoms: CA_489  and  C_490
REMARK  285  A    between atoms: CA_489  and  CB_492
REMARK  286  A    between atoms: CB_492  and  CG_493
REMARK  287  A    between atoms: N_498  and  CA_499
REMARK  288  A    between atoms: CA_499  and  C_500
REMARK  289  A    between atoms: CA_499  and  CB_502
REMARK  290  A    between atoms: CB_502  and  CG_503
REMARK  291  A    between atoms: CG_503  and  CD2_504
REMARK  292  A    between atoms: CG_503  and  CD1_505
REMARK  293  A    between atoms: N_506  and  CA_507
REMARK  294  A    between atoms: CA_507  and  C_508
REMARK  295  A    between atoms: CA_507  and  CB_510
REMARK  296  A    between atoms: CB_510  and  OG1_511
REMARK  297  A    between atoms: CB_510  and  CG2_512
REMARK  298  A    between atoms: CA_514  and  C_515
REMARK  299  A    between atoms: N_520  and  CA_521
REMARK  300  A    between atoms: CA_521  and  C_522
REMARK  301  A    between atoms: CA_521  and  CB_524
REMARK  302  A    between atoms: CB_524  and  CG_525
REMARK  303  A    between atoms: N_531  and  CA_532
REMARK  304  A    between atoms: CA_532  and  C_533
REMARK  305  A    between atoms: CA_532  and  CB_535
REMARK  306  A    between atoms: CB_535  and  OG1_536
REMARK  307  A    between atoms: CB_535  and  CG2_537
REMARK  308  A    between atoms: N_538  and  CA_539
REMARK  309  A    between atoms: CA_539  and  C_540
REMARK  310  A    between atoms: CA_539  and  CB_542
REMARK  311  A    between atoms: N_543  and  CA_544
REMARK  312  A    between atoms: CA_544  and  C_545
REMARK  313  A    between atoms: CA_544  and  CB_547
REMARK  314  A    between atoms: CB_547  and  CG_548
REMARK  315  A    between atoms: CG_548  and  CD_549
REMARK  316  A    between atoms: CD_549  and  NE_550
REMARK  317  A    between atoms: N_554  and  CA_555
REMARK  318  A    between atoms: CA_555  and  C_556
REMARK  319  A    between atoms: N_558  and  CA_559
REMARK  320  A    between atoms: CA_559  and  C_560
REMARK  321  A    between atoms: CA_559  and  CB_562
REMARK  322  A    between atoms: CB_562  and  CG_563
REMARK  323  A    between atoms: CG_563  and  CD_564
REMARK  324  A    between atoms: CD_564  and  NE_565
REMARK  325  A    between atoms: N_569  and  CA_570
REMARK  326  A    between atoms: CA_570  and  C_571
REMARK  327  A    between atoms: CA_570  and  CB_573
REMARK  328  A    between atoms: CB_573  and  CG_574
REMARK  329  A    between atoms: N_580  and  CA_581
REMARK  330  A    between atoms: CA_581  and  C_582
REMARK  331  A    between atoms: CA_581  and  CB_584
REMARK  332  A    between atoms: N_585  and  CA_586
REMARK  333  A    between atoms: CA_586  and  C_587
REMARK  334  A    between atoms: CA_586  and  CB_589
REMARK  335  A    between atoms: CB_589  and  OG1_590
REMARK  336  A    between atoms: CB_589  and  CG2_591
REMARK  337  A    between atoms: N_592  and  CA_593
REMARK  338  A    between atoms: CA_593  and  C_594
REMARK  339  A    between atoms: CA_593  and  CB_596
REMARK  340  A    between atoms: CB_596  and  CG2_597
REMARK  341  A    between atoms: CB_596  and  CG1_598
REMARK  342  A    between atoms: N_599  and  CA_600
REMARK  343  A    between atoms: CA_600  and  C_601
REMARK  344  A    between atoms: CA_600  and  CB_603
REMARK  345  A    between atoms: CB_603  and  CG2_604
REMARK  346  A    between atoms: CB_603  and  CG1_605
REMARK  347  A    between atoms: N_606  and  CA_607
REMARK  348  A    between atoms: CA_607  and  C_608
REMARK  349  A    between atoms: CA_607  and  CB_610
REMARK  350  A    between atoms: CB_610  and  CG_611
REMARK  351  A    between atoms: CG_611  and  CD_612
REMARK  352  A    between atoms: CD_612  and  OE2_613
REMARK  353  A    between atoms: N_615  and  CA_616
REMARK  354  A    between atoms: CA_616  and  C_617
REMARK  355  A    between atoms: CA_616  and  CB_619
REMARK  356  A    between atoms: CB_619  and  CG_620
REMARK  357  A    between atoms: CG_620  and  CD_621
REMARK  358  A    between atoms: CD_621  and  OE2_623
REMARK  359  A    between atoms: N_624  and  CA_625
REMARK  360  A    between atoms: CA_625  and  C_626
REMARK  361  A    between atoms: CA_625  and  CB_628
REMARK  362  A    between atoms: CB_628  and  CG_629
REMARK  363  A    between atoms: CG_629  and  CD1_630
REMARK  364  A    between atoms: CG_629  and  CD2_631
REMARK  365  A    between atoms: N_632  and  CA_633
REMARK  366  A    between atoms: CA_633  and  C_634
REMARK  367  A    between atoms: CA_633  and  CB_636
REMARK  368  A    between atoms: CB_636  and  CG_637
REMARK  369  A    between atoms: N_643  and  CA_644
REMARK  370  A    between atoms: CA_644  and  C_645
REMARK  371  A    between atoms: CA_644  and  CB_647
REMARK  372  A    between atoms: CB_647  and  CG_648
REMARK  373  A    between atoms: CG_648  and  CD_649
REMARK  374  A    between atoms: CD_649  and  NE_650
REMARK  375  A    between atoms: N_654  and  CA_655
REMARK  376  A    between atoms: CA_655  and  C_656
REMARK  377  A    between atoms: CA_655  and  CB_658
REMARK  378  A    between atoms: CB_658  and  CG_659
REMARK  379  A    between atoms: CG_659  and  OD2_660
REMARK  380  A    between atoms: N_662  and  CA_663
REMARK  381  A    between atoms: CA_663  and  C_664
REMARK  382  A    between atoms: N_666  and  CA_667
REMARK  383  A    between atoms: CA_667  and  C_668
REMARK  384  A    between atoms: CA_667  and  CB_670
REMARK  385  A    between atoms: CB_670  and  CG2_671
REMARK  386  A    between atoms: CB_670  and  CG1_672
REMARK  387  A    between atoms: N_673  and  CA_674
REMARK  388  A    between atoms: CA_674  and  C_675
REMARK  389  A    between atoms: CA_674  and  CB_677
REMARK  390  A    between atoms: CB_677  and  CG_678
REMARK  391  A    between atoms: N_681  and  CA_682
REMARK  392  A    between atoms: CA_682  and  C_683
REMARK  393  A    between atoms: CA_682  and  CB_685
REMARK  394  A    between atoms: CB_685  and  CG_686
REMARK  395  A    between atoms: N_695  and  CA_696
REMARK  396  A    between atoms: CA_696  and  C_697
REMARK  397  A    between atoms: N_699  and  CA_700
REMARK  398  A    between atoms: CA_700  and  C_701
REMARK  399  A    between atoms: CA_700  and  CB_703
REMARK  400  A    between atoms: CB_703  and  CG_704
REMARK  401  A    between atoms: CG_704  and  CD_705
REMARK  402  A    between atoms: CD_705  and  NE_706
REMARK  403  A    between atoms: N_710  and  CA_711
REMARK  404  A    between atoms: CA_711  and  C_712
REMARK  405  A    between atoms: CA_711  and  CB_714
REMARK  406  A    between atoms: CB_714  and  CG1_715
REMARK  407  A    between atoms: CB_714  and  CG2_716
REMARK  408  A    between atoms: CG1_715  and  CD1_717
REMARK  409  A    between atoms: N_718  and  CA_719
REMARK  410  A    between atoms: CA_719  and  C_720
REMARK  411  A    between atoms: CA_719  and  CB_722
REMARK  412  A    between atoms: CB_722  and  CG1_723
REMARK  413  A    between atoms: CB_722  and  CG2_724
REMARK  414  A    between atoms: N_725  and  CA_726
REMARK  415  A    between atoms: CA_726  and  C_727
REMARK  416  A    between atoms: CA_726  and  CB_729
REMARK  417  A    between atoms: N_730  and  CA_731
REMARK  418  A    between atoms: CA_731  and  C_732
REMARK  419  A    between atoms: CA_731  and  CB_734
REMARK  420  A    between atoms: CB_734  and  CG_735
REMARK  421  A    between atoms: N_741  and  CA_742
REMARK  422  A    between atoms: CA_742  and  C_743
REMARK  423  A    between atoms: CA_742  and  CB_745
REMARK  424  A    between atoms: CB_745  and  CG_746
REMARK  425  A    between atoms: N_752  and  CA_753
REMARK  426  A    between atoms: CA_753  and  C_754
REMARK  427  A    between atoms: CA_753  and  CB_756
REMARK  428  A    between atoms: CB_756  and  CG_757
REMARK  429  A    between atoms: CG_757  and  CD_758
REMARK  430  A    between atoms: CD_758  and  OE2_760
REMARK  431  A    between atoms: N_761  and  CA_762
REMARK  432  A    between atoms: CA_762  and  C_763
REMARK  433  A    between atoms: CA_762  and  CB_765
REMARK  434  A    between atoms: CB_765  and  CG_766
REMARK  435  A    between atoms: N_772  and  CA_773
REMARK  436  A    between atoms: CA_773  and  C_774
REMARK  437  A    between atoms: N_776  and  CA_777
REMARK  438  A    between atoms: CA_777  and  C_778
REMARK  439  A    between atoms: N_780  and  CA_781
REMARK  440  A    between atoms: CA_781  and  C_782
REMARK  441  A    between atoms: CA_781  and  CB_784
REMARK  442  A    between atoms: CB_784  and  CG1_785
REMARK  443  A    between atoms: CB_784  and  CG2_786
REMARK  444  A    between atoms: N_787  and  CA_788
REMARK  445  A    between atoms: CA_788  and  C_789
REMARK  446  A    between atoms: CA_788  and  CB_791
REMARK  447  A    between atoms: CB_791  and  CG_792
REMARK  448  A    between atoms: CG_792  and  SD_793
REMARK  449  A    between atoms: SD_793  and  CE_794
REMARK  450  A    between atoms: N_795  and  CA_796
REMARK  451  A    between atoms: CA_796  and  C_797
REMARK  452  A    between atoms: CA_796  and  CB_799
REMARK  453  A    between atoms: CB_799  and  SG_800
REMARK  454  A    between atoms: N_801  and  CA_802
REMARK  455  A    between atoms: CA_802  and  C_803
REMARK  456  A    between atoms: CA_802  and  CB_805
REMARK  457  A    between atoms: CB_805  and  CG1_806
REMARK  458  A    between atoms: CB_805  and  CG2_807
REMARK  459  A    between atoms: N_808  and  CA_809
REMARK  460  A    between atoms: CA_809  and  C_810
REMARK  461  A    between atoms: CA_809  and  CB_812
REMARK  462  A    between atoms: CB_812  and  CG_813
REMARK  463  A    between atoms: CG_813  and  CD_814
REMARK  464  A    between atoms: CD_814  and  OE2_816
REMARK  465  A    between atoms: N_817  and  CA_818
REMARK  466  A    between atoms: CA_818  and  C_819
REMARK  467  A    between atoms: CA_818  and  CB_821
REMARK  468  A    between atoms: CB_821  and  OG_822
REMARK  469  A    between atoms: N_823  and  CA_824
REMARK  470  A    between atoms: CA_824  and  C_825
REMARK  471  A    between atoms: CA_824  and  CB_827
REMARK  472  A    between atoms: CB_827  and  CG1_828
REMARK  473  A    between atoms: CB_827  and  CG2_829
REMARK  474  A    between atoms: N_830  and  CA_831
REMARK  475  A    between atoms: CA_831  and  C_832
REMARK  476  A    between atoms: CA_831  and  CB_834
REMARK  477  A    between atoms: CB_834  and  CG_835
REMARK  478  A    between atoms: N_838  and  CA_839
REMARK  479  A    between atoms: CA_839  and  C_840
REMARK  480  A    between atoms: CA_839  and  CB_842
REMARK  481  A    between atoms: CB_842  and  CG_843
REMARK  482  A    between atoms: CG_843  and  CD_844
REMARK  483  A    between atoms: CD_844  and  NE_845
REMARK  484  A    between atoms: N_849  and  CA_850
REMARK  485  A    between atoms: CA_850  and  C_851
REMARK  486  A    between atoms: CA_850  and  CB_853
REMARK  487  A    between atoms: CB_853  and  CG_854
REMARK  488  A    between atoms: CG_854  and  CD_855
REMARK  489  A    between atoms: CD_855  and  OE2_857
REMARK  490  A    between atoms: N_858  and  CA_859
REMARK  491  A    between atoms: CA_859  and  C_860
REMARK  492  A    between atoms: CA_859  and  CB_862
REMARK  493  A    between atoms: CB_862  and  CG_863
REMARK  494  A    between atoms: CG_863  and  SD_864
REMARK  495  A    between atoms: SD_864  and  CE_865
REMARK  496  A    between atoms: N_866  and  C_867
REMARK  497  A    between atoms: C_867  and  C_868
REMARK  498  A    between atoms: C_867  and  C_870
REMARK  499  A    between atoms: C_870  and  O_871
REMARK  500  A    between atoms: C_873  and  C_874
REMARK  501  A    between atoms: N_879  and  C_880
REMARK  502  A    between atoms: C_880  and  C_881
REMARK  503  A    between atoms: C_880  and  C_883
REMARK  504  A    between atoms: C_883  and  C_884
REMARK  505  A    between atoms: C_884  and  C_885
REMARK  506  A    between atoms: C_884  and  C_886
REMARK  507  A    between atoms: N_887  and  C_888
REMARK  508  A    between atoms: C_888  and  C_889
REMARK  509  A    between atoms: C_888  and  C_891
REMARK  510  A    between atoms: C_891  and  C_892
REMARK  511  A    between atoms: C_891  and  C_893
REMARK  512  A    between atoms: N_894  and  C_895
REMARK  513  A    between atoms: C_895  and  C_896
REMARK  514  A    between atoms: C_895  and  C_898
REMARK  515  A    between atoms: C_898  and  C_899
REMARK  516  A    between atoms: C_899  and  O_900
REMARK  517  A    between atoms: N_902  and  C_903
REMARK  518  A    between atoms: C_903  and  C_904
REMARK  519  A    between atoms: C_903  and  C_906
REMARK  520  A    between atoms: C_906  and  C_907
REMARK  521  A    between atoms: N_910  and  C_911
REMARK  522  A    between atoms: C_911  and  C_912
REMARK  523  A    between atoms: C_911  and  C_914
REMARK  524  A    between atoms: C_914  and  C_915
REMARK  525  A    between atoms: C_914  and  C_916
REMARK  526  A    between atoms: C_915  and  C_917
REMARK  527  A    between atoms: N_918  and  C_919
REMARK  528  A    between atoms: C_919  and  C_920
REMARK  529  A    between atoms: C_919  and  C_922
REMARK  530  A    between atoms: N_923  and  C_924
REMARK  531  A    between atoms: C_924  and  C_925
REMARK  532  A    between atoms: C_924  and  C_927
REMARK  533  A    between atoms: C_927  and  C_928
REMARK  534  A    between atoms: C_928  and  C_929
REMARK  535  A    between atoms: C_928  and  C_930
REMARK  536  A    between atoms: N_931  and  C_932
REMARK  537  A    between atoms: C_932  and  C_933
REMARK  538  A    between atoms: C_932  and  C_935
REMARK  539  A    between atoms: C_935  and  C_936
REMARK  540  A    between atoms: N_945  and  C_946
REMARK  541  A    between atoms: C_946  and  C_947
REMARK  542  A    between atoms: C_946  and  C_949
REMARK  543  A    between atoms: C_949  and  C_950
REMARK  544  A    between atoms: C_950  and  S_951
REMARK  545  A    between atoms: S_951  and  C_952
REMARK  546  A    between atoms: N_953  and  C_954
REMARK  547  A    between atoms: C_954  and  C_955
REMARK  548  A    between atoms: C_954  and  C_957
REMARK  549  A    between atoms: C_957  and  O_958
REMARK  550  A    between atoms: C_957  and  C_959
REMARK  551  A    between atoms: N_960  and  C_961
REMARK  552  A    between atoms: C_961  and  C_962
REMARK  553  A    between atoms: C_961  and  C_964
REMARK  554  A    between atoms: C_964  and  C_965
REMARK  555  A    between atoms: C_965  and  C_966
REMARK  556  A    between atoms: C_966  and  O_967
REMARK  557  A    between atoms: N_969  and  C_970
REMARK  558  A    between atoms: C_970  and  C_971
REMARK  559  A    between atoms: C_970  and  C_973
REMARK  560  A    between atoms: C_973  and  C_974
REMARK  561  A    between atoms: C_979  and  O_980
REMARK  562  A    between atoms: N_981  and  C_982
REMARK  563  A    between atoms: C_982  and  C_983
REMARK  564  A    between atoms: C_982  and  C_985
REMARK  565  A    between atoms: C_985  and  C_986
REMARK  566  A    between atoms: C_986  and  C_987
REMARK  567  A    between atoms: C_986  and  C_988
REMARK  568  A    between atoms: N_989  and  C_990
REMARK  569  A    between atoms: C_990  and  C_991
REMARK  570  A    between atoms: C_990  and  C_993
REMARK  571  A    between atoms: C_993  and  C_994
REMARK  572  A    between atoms: N_997  and  C_998
REMARK  573  A    between atoms: C_998  and  C_999
REMARK  574  A    between atoms: C_998  and  C_1001
REMARK  575  A    between atoms: C_1001  and  C_1002
REMARK  576  A    between atoms: C_1002  and  C_1003
REMARK  577  A    between atoms: C_1003  and  N_1004
REMARK  578  A    between atoms: N_1008  and  C_1009
REMARK  579  A    between atoms: C_1009  and  C_1010
REMARK  580  A    between atoms: C_1009  and  C_1012
REMARK  581  A    between atoms: C_1012  and  C_1013
REMARK  582  A    between atoms: N_1018  and  C_1019
REMARK  583  A    between atoms: C_1019  and  C_1020
REMARK  584  A    between atoms: C_1019  and  C_1022
REMARK  585  A    between atoms: C_1022  and  C_1023
REMARK  586  A    between atoms: C_1023  and  C_1024
REMARK  587  A    between atoms: C_1023  and  C_1025
REMARK  588  A    between atoms: N_1026  and  C_1027
REMARK  589  A    between atoms: C_1027  and  C_1028
REMARK  590  A    between atoms: C_1027  and  C_1030
REMARK  591  A    between atoms: C_1030  and  C_1031
REMARK  592  A    between atoms: N_1036  and  C_1037
REMARK  593  A    between atoms: C_1037  and  C_1038
REMARK  594  A    between atoms: C_1037  and  C_1040
REMARK  595  A    between atoms: C_1040  and  O_1041
REMARK  596  A    between atoms: C_1040  and  C_1042
REMARK  597  A    between atoms: N_1043  and  C_1044
REMARK  598  A    between atoms: C_1044  and  C_1045
REMARK  599  A    between atoms: C_1044  and  C_1047
REMARK  600  A    between atoms: C_1047  and  C_1048
REMARK  601  A    between atoms: N_1057  and  C_1058
REMARK  602  A    between atoms: C_1058  and  C_1059
REMARK  603  A    between atoms: C_1058  and  C_1061
REMARK  604  A    between atoms: C_1061  and  C_1062
REMARK  605  A    between atoms: C_1061  and  C_1063
REMARK  606  A    between atoms: C_1062  and  C_1064
REMARK  607  A    between atoms: N_1065  and  C_1066
REMARK  608  A    between atoms: C_1066  and  C_1067
REMARK  609  A    between atoms: C_1066  and  C_1069
REMARK  610  A    between atoms: C_1069  and  C_1070
REMARK  611  A    between atoms: C_1070  and  C_1071
REMARK  612  A    between atoms: N_1074  and  C_1075
REMARK  613  A    between atoms: C_1075  and  C_1076
REMARK  614  A    between atoms: C_1075  and  C_1078
REMARK  615  A    between atoms: C_1078  and  C_1079
REMARK  616  A    between atoms: C_1079  and  O_1080
REMARK  617  A    between atoms: N_1082  and  C_1083
REMARK  618  A    between atoms: C_1083  and  C_1084
REMARK  619  A    between atoms: C_1083  and  C_1086
REMARK  620  A    between atoms: C_1086  and  C_1087
REMARK  621  A    between atoms: N_1090  and  C_1091
REMARK  622  A    between atoms: C_1091  and  C_1092
REMARK  623  A    between atoms: N_1094  and  C_1095
REMARK  624  A    between atoms: C_1095  and  C_1096
REMARK  625  A    between atoms: N_1098  and  C_1099
REMARK  626  A    between atoms: C_1099  and  C_1100
REMARK  627  A    between atoms: C_1099  and  C_1102
REMARK  628  A    between atoms: C_1102  and  C_1103
REMARK  629  A    between atoms: N_1112  and  C_1113
REMARK  630  A    between atoms: C_1113  and  C_1114
REMARK  631  A    between atoms: C_1113  and  C_1116
REMARK  632  A    between atoms: C_1116  and  C_1117
REMARK  633  A    between atoms: C_1117  and  O_1118
REMARK  634  A    between atoms: N_1120  and  C_1121
REMARK  635  A    between atoms: C_1121  and  C_1122
REMARK  636  A    between atoms: C_1121  and  C_1124
REMARK  637  A    between atoms: N_1125  and  C_1126
REMARK  638  A    between atoms: C_1126  and  C_1127
REMARK  639  A    between atoms: C_1126  and  C_1129
REMARK  640  A    between atoms: C_1129  and  C_1130
REMARK  641  A    between atoms: N_1136  and  C_1137
REMARK  642  A    between atoms: C_1137  and  C_1138
REMARK  643  A    between atoms: C_1137  and  C_1140
REMARK  644  A    between atoms: C_1140  and  C_1141
REMARK  645  A    between atoms: C_1140  and  C_1142
REMARK  646  A    between atoms: N_1143  and  C_1144
REMARK  647  A    between atoms: C_1144  and  C_1145
REMARK  648  A    between atoms: C_1144  and  C_1147
REMARK  649  A    between atoms: C_1147  and  C_1148
REMARK  650  A    between atoms: C_1148  and  C_1149
REMARK  651  A    between atoms: C_1149  and  O_1151
REMARK  652  A    between atoms: N_1152  and  C_1153
REMARK  653  A    between atoms: C_1153  and  C_1154
REMARK  654  A    between atoms: C_1153  and  C_1156
REMARK  655  A    between atoms: C_1156  and  C_1157
REMARK  656  A    between atoms: C_1157  and  C_1158
REMARK  657  A    between atoms: C_1157  and  C_1159
REMARK  658  A    between atoms: N_1160  and  C_1161
REMARK  659  A    between atoms: C_1161  and  C_1162
REMARK  660  A    between atoms: C_1161  and  C_1164
REMARK  661  A    between atoms: C_1164  and  C_1165
REMARK  662  A    between atoms: C_1170  and  O_1171
REMARK  663  A    between atoms: C_1174  and  O_1175
REMARK  664  A    between atoms: O_1175  and  O_1176
REMARK                            x       y       z     vdW  Elec       q    Type
REMARK                         _______ _______ _______ _____ _____    ______ ____
ROOT
ATOM      1  C   UNL     1     -11.957  -3.359   5.082  0.00  0.00    +0.000 C 
ATOM      2  O   UNL     1     -13.171  -3.256   5.316  0.00  0.00    +0.000 OA
ENDROOT
BRANCH   2   3
ATOM      3  O   UNL     1     -13.026  -2.724   4.794  0.00  0.00    +0.000 OA
ATOM      4  H   UNL     1     -13.844  -2.247   4.582  0.00  0.00    +0.000 HD
ENDBRANCH   2   3
TORSDOF 1
